
 OpenBabel03132512093D

 65 64  0  0  0  0  0  0  0  0999 V2000
    1.0233   -0.0662    0.0712 C   0  0  0  0  0  0  0  0  0  0  0  0
    0.5166   -1.1213   -0.8986 C   0  0  0  0  0  0  0  0  0  0  0  0
    1.0232   -2.4887   -0.4697 C   0  0  0  0  0  0  0  0  0  0  0  0
    0.5166   -2.8010    0.9289 C   0  0  0  0  0  0  0  0  0  0  0  0
   -1.0034   -2.8010    0.9289 C   0  0  0  0  0  0  0  0  0  0  0  0
   -1.5101   -3.8561   -0.0409 C   0  0  0  0  0  0  0  0  0  0  0  0
   -2.2922   -4.8742    0.4092 C   0  0  0  0  0  0  0  0  0  0  0  0
   -2.7989   -5.9292   -0.5606 C   0  0  0  0  0  0  0  0  0  0  0  0
   -2.2922   -7.2966   -0.1318 C   0  0  0  0  0  0  0  0  0  0  0  0
   -3.1763   -8.2833    0.1776 C   0  0  0  0  0  0  0  0  0  0  0  0
   -2.6696   -9.6507    0.6065 C   0  0  0  0  0  0  0  0  0  0  0  0
   -3.1763   -9.9630    2.0051 C   0  0  0  0  0  0  0  0  0  0  0  0
   -3.9584  -11.0558    2.2169 C   0  0  0  0  0  0  0  0  0  0  0  0
   -4.4651  -11.3681    3.6156 C   0  0  0  0  0  0  0  0  0  0  0  0
   -5.9851  -11.3681    3.6156 C   0  0  0  0  0  0  0  0  0  0  0  0
   -6.6653  -12.4922    3.9681 C   0  0  0  0  0  0  0  0  0  0  0  0
   -8.1853  -12.4922    3.9681 C   0  0  0  0  0  0  0  0  0  0  0  0
   -8.6919  -13.5473    2.9983 C   0  0  0  0  0  0  0  0  0  0  0  0
   -8.1853  -14.9147    3.4271 C   0  0  0  0  0  0  0  0  0  0  0  0
   -8.6919  -15.2271    4.8258 C   0  0  0  0  0  0  0  0  0  0  0  0
   -9.4226  -16.2479    5.0237 O   0  0  0  0  0  0  0  0  0  0  0  0
   -8.3489  -14.3782    5.9112 O   0  0  0  0  0  0  0  0  0  0  0  0
   -8.8222  -14.6700    7.2178 C   0  0  0  0  0  0  0  0  0  0  0  0
  -10.3422  -14.6700    7.2178 C   0  0  0  0  0  0  0  0  0  0  0  0
  -10.8156  -15.6557    6.3118 O   0  0  0  0  0  0  0  0  0  0  0  0
   -8.3156  -16.0374    7.6466 C   0  0  0  0  0  0  0  0  0  0  0  0
   -6.8956  -16.0374    7.6466 O   0  0  0  0  0  0  0  0  0  0  0  0
    0.6666   -0.2861    1.0558 H   0  0  0  0  0  0  0  0  0  0  0  0
    0.6666    0.8964   -0.2306 H   0  0  0  0  0  0  0  0  0  0  0  0
    2.0933   -0.0662    0.0712 H   0  0  0  0  0  0  0  0  0  0  0  0
   -0.5534   -1.1213   -0.8986 H   0  0  0  0  0  0  0  0  0  0  0  0
    0.8733   -0.9014   -1.8831 H   0  0  0  0  0  0  0  0  0  0  0  0
    0.6666   -3.2314   -1.1524 H   0  0  0  0  0  0  0  0  0  0  0  0
    2.0932   -2.4887   -0.4697 H   0  0  0  0  0  0  0  0  0  0  0  0
    0.8732   -3.7636    1.2308 H   0  0  0  0  0  0  0  0  0  0  0  0
    0.8732   -2.0583    1.6116 H   0  0  0  0  0  0  0  0  0  0  0  0
   -1.3601   -3.0209    1.9134 H   0  0  0  0  0  0  0  0  0  0  0  0
   -1.3601   -1.8385    0.6270 H   0  0  0  0  0  0  0  0  0  0  0  0
   -1.2516   -3.7981   -1.0776 H   0  0  0  0  0  0  0  0  0  0  0  0
   -2.5507   -4.9322    1.4459 H   0  0  0  0  0  0  0  0  0  0  0  0
   -3.8689   -5.9292   -0.5606 H   0  0  0  0  0  0  0  0  0  0  0  0
   -2.4422   -5.7094   -1.5452 H   0  0  0  0  0  0  0  0  0  0  0  0
   -1.2402   -7.4832   -0.0733 H   0  0  0  0  0  0  0  0  0  0  0  0
   -4.2282   -8.0967    0.1191 H   0  0  0  0  0  0  0  0  0  0  0  0
   -3.0263  -10.3934   -0.0762 H   0  0  0  0  0  0  0  0  0  0  0  0
   -1.5996   -9.6507    0.6065 H   0  0  0  0  0  0  0  0  0  0  0  0
   -2.9178   -9.3234    2.8230 H   0  0  0  0  0  0  0  0  0  0  0  0
   -4.2169  -11.6954    1.3990 H   0  0  0  0  0  0  0  0  0  0  0  0
   -4.1084  -12.3307    3.9174 H   0  0  0  0  0  0  0  0  0  0  0  0
   -4.1084  -10.6254    4.2982 H   0  0  0  0  0  0  0  0  0  0  0  0
   -6.5201  -10.4839    3.3383 H   0  0  0  0  0  0  0  0  0  0  0  0
   -6.1303  -13.3764    4.2454 H   0  0  0  0  0  0  0  0  0  0  0  0
   -8.5419  -12.7121    4.9527 H   0  0  0  0  0  0  0  0  0  0  0  0
   -8.5419  -11.5297    3.6662 H   0  0  0  0  0  0  0  0  0  0  0  0
   -9.7619  -13.5473    2.9983 H   0  0  0  0  0  0  0  0  0  0  0  0
   -8.3353  -13.3275    2.0138 H   0  0  0  0  0  0  0  0  0  0  0  0
   -8.5419  -15.6574    2.7445 H   0  0  0  0  0  0  0  0  0  0  0  0
   -7.1153  -14.9147    3.4271 H   0  0  0  0  0  0  0  0  0  0  0  0
   -8.4656  -13.9273    7.9005 H   0  0  0  0  0  0  0  0  0  0  0  0
  -10.6989  -14.8899    8.2024 H   0  0  0  0  0  0  0  0  0  0  0  0
  -10.6989  -13.7074    6.9159 H   0  0  0  0  0  0  0  0  0  0  0  0
  -10.4822  -15.4502    5.3917 H   0  0  0  0  0  0  0  0  0  0  0  0
   -8.6722  -16.2573    8.6312 H   0  0  0  0  0  0  0  0  0  0  0  0
   -8.6722  -16.7801    6.9640 H   0  0  0  0  0  0  0  0  0  0  0  0
   -6.5622  -15.8319    6.7265 H   0  0  0  0  0  0  0  0  0  0  0  0
  1  2  1  0  0  0  0
  1 28  1  0  0  0  0
  1 29  1  0  0  0  0
  1 30  1  0  0  0  0
  2  3  1  0  0  0  0
  2 31  1  0  0  0  0
  2 32  1  0  0  0  0
  3  4  1  0  0  0  0
  3 33  1  0  0  0  0
  3 34  1  0  0  0  0
  4  5  1  0  0  0  0
  4 35  1  0  0  0  0
  4 36  1  0  0  0  0
  5  6  1  0  0  0  0
  5 37  1  0  0  0  0
  5 38  1  0  0  0  0
  6  7  2  0  0  0  0
  6 39  1  0  0  0  0
  7  8  1  0  0  0  0
  7 40  1  0  0  0  0
  8  9  1  0  0  0  0
  8 41  1  0  0  0  0
  8 42  1  0  0  0  0
  9 10  2  0  0  0  0
  9 43  1  0  0  0  0
 10 11  1  0  0  0  0
 10 44  1  0  0  0  0
 11 12  1  0  0  0  0
 11 45  1  0  0  0  0
 11 46  1  0  0  0  0
 12 13  2  0  0  0  0
 12 47  1  0  0  0  0
 13 14  1  0  0  0  0
 13 48  1  0  0  0  0
 14 15  1  0  0  0  0
 14 49  1  0  0  0  0
 14 50  1  0  0  0  0
 15 16  2  0  0  0  0
 15 51  1  0  0  0  0
 16 17  1  0  0  0  0
 16 52  1  0  0  0  0
 17 18  1  0  0  0  0
 17 53  1  0  0  0  0
 17 54  1  0  0  0  0
 18 19  1  0  0  0  0
 18 55  1  0  0  0  0
 18 56  1  0  0  0  0
 19 20  1  0  0  0  0
 19 57  1  0  0  0  0
 19 58  1  0  0  0  0
 20 21  2  0  0  0  0
 20 22  1  0  0  0  0
 22 23  1  0  0  0  0
 23 24  1  0  0  0  0
 23 26  1  0  0  0  0
 23 59  1  0  0  0  0
 24 25  1  0  0  0  0
 24 60  1  0  0  0  0
 24 61  1  0  0  0  0
 25 62  1  0  0  0  0
 26 27  1  0  0  0  0
 26 63  1  0  0  0  0
 26 64  1  0  0  0  0
 27 65  1  0  0  0  0
M  END
