REMARK  Name = 
REMARK  21 active torsions:
REMARK  status: ('A' for Active; 'I' for Inactive)
REMARK    1  A    between atoms: C_1  and  C_2
REMARK    2  A    between atoms: C_2  and  C_3
REMARK    3  A    between atoms: C_3  and  C_4
REMARK    4  A    between atoms: C_4  and  C_5
REMARK    5  A    between atoms: C_5  and  C_6
REMARK    6  A    between atoms: C_7  and  C_8
REMARK    7  A    between atoms: C_8  and  C_9
REMARK    8  A    between atoms: C_10  and  C_11
REMARK    9  A    between atoms: C_11  and  C_12
REMARK   10  A    between atoms: C_13  and  C_14
REMARK   11  A    between atoms: C_14  and  C_15
REMARK   12  A    between atoms: C_16  and  C_17
REMARK   13  A    between atoms: C_17  and  C_18
REMARK   14  A    between atoms: C_18  and  C_19
REMARK   15  A    between atoms: C_19  and  C_20
REMARK   16  A    between atoms: C_20  and  O_22
REMARK   17  A    between atoms: O_22  and  C_23
REMARK   18  A    between atoms: C_23  and  C_24
REMARK   19  A    between atoms: C_23  and  C_26
REMARK   20  A    between atoms: C_24  and  O_25
REMARK   21  A    between atoms: C_26  and  O_27
REMARK                            x       y       z     vdW  Elec       q    Type
REMARK                         _______ _______ _______ _____ _____    ______ ____
ROOT
ATOM      1  C   UNL     1      -5.985 -11.368   3.616  0.00  0.00    +0.000 C 
ATOM      2  C   UNL     1      -6.665 -12.492   3.968  0.00  0.00    +0.000 C 
ENDROOT
BRANCH   1   3
ATOM      3  C   UNL     1      -4.465 -11.368   3.616  0.00  0.00    +0.000 C 
BRANCH   3   5
ATOM      4  C   UNL     1      -3.176  -9.963   2.005  0.00  0.00    +0.000 C 
ATOM      5  C   UNL     1      -3.958 -11.056   2.217  0.00  0.00    +0.000 C 
BRANCH   4   6
ATOM      6  C   UNL     1      -2.670  -9.651   0.607  0.00  0.00    +0.000 C 
BRANCH   6   8
ATOM      7  C   UNL     1      -2.292  -7.297  -0.132  0.00  0.00    +0.000 C 
ATOM      8  C   UNL     1      -3.176  -8.283   0.178  0.00  0.00    +0.000 C 
BRANCH   7   9
ATOM      9  C   UNL     1      -2.799  -5.929  -0.561  0.00  0.00    +0.000 C 
BRANCH   9  11
ATOM     10  C   UNL     1      -1.510  -3.856  -0.041  0.00  0.00    +0.000 C 
ATOM     11  C   UNL     1      -2.292  -4.874   0.409  0.00  0.00    +0.000 C 
BRANCH  10  12
ATOM     12  C   UNL     1      -1.003  -2.801   0.929  0.00  0.00    +0.000 C 
BRANCH  12  13
ATOM     13  C   UNL     1       0.517  -2.801   0.929  0.00  0.00    +0.000 C 
BRANCH  13  14
ATOM     14  C   UNL     1       1.023  -2.489  -0.470  0.00  0.00    +0.000 C 
BRANCH  14  16
ATOM     15  C   UNL     1       1.023  -0.066   0.071  0.00  0.00    +0.000 C 
ATOM     16  C   UNL     1       0.517  -1.121  -0.899  0.00  0.00    +0.000 C 
ENDBRANCH  14  16
ENDBRANCH  13  14
ENDBRANCH  12  13
ENDBRANCH  10  12
ENDBRANCH   9  11
ENDBRANCH   7   9
ENDBRANCH   6   8
ENDBRANCH   4   6
ENDBRANCH   3   5
ENDBRANCH   1   3
BRANCH   2  17
ATOM     17  C   UNL     1      -8.185 -12.492   3.968  0.00  0.00    +0.000 C 
BRANCH  17  18
ATOM     18  C   UNL     1      -8.692 -13.547   2.998  0.00  0.00    +0.000 C 
BRANCH  18  19
ATOM     19  C   UNL     1      -8.185 -14.915   3.427  0.00  0.00    +0.000 C 
BRANCH  19  20
ATOM     20  C   UNL     1      -8.692 -15.227   4.826  0.00  0.00    +0.000 C 
ATOM     21  O   UNL     1      -9.423 -16.248   5.024  0.00  0.00    +0.000 OA
BRANCH  20  22
ATOM     22  O   UNL     1      -8.349 -14.378   5.911  0.00  0.00    +0.000 OA
BRANCH  22  23
ATOM     23  C   UNL     1      -8.822 -14.670   7.218  0.00  0.00    +0.000 C 
BRANCH  23  24
ATOM     24  C   UNL     1     -10.342 -14.670   7.218  0.00  0.00    +0.000 C 
BRANCH  24  25
ATOM     25  O   UNL     1     -10.816 -15.656   6.312  0.00  0.00    +0.000 OA
ATOM     26  H   UNL     1     -10.482 -15.450   5.392  0.00  0.00    +0.000 HD
ENDBRANCH  24  25
ENDBRANCH  23  24
BRANCH  23  27
ATOM     27  C   UNL     1      -8.316 -16.037   7.647  0.00  0.00    +0.000 C 
BRANCH  27  28
ATOM     28  O   UNL     1      -6.896 -16.037   7.647  0.00  0.00    +0.000 OA
ATOM     29  H   UNL     1      -6.562 -15.832   6.726  0.00  0.00    +0.000 HD
ENDBRANCH  27  28
ENDBRANCH  23  27
ENDBRANCH  22  23
ENDBRANCH  20  22
ENDBRANCH  19  20
ENDBRANCH  18  19
ENDBRANCH  17  18
ENDBRANCH   2  17
TORSDOF 20
