
 OpenBabel03132514253D

 66 66  0  0  0  0  0  0  0  0999 V2000
    0.9826   -0.0874    0.0454 C   0  0  0  0  0  0  0  0  0  0  0  0
    0.5093   -1.3764    0.4070 O   0  0  0  0  0  0  0  0  0  0  0  0
    0.8523   -2.5059   -0.3823 C   0  0  0  0  0  0  0  0  0  0  0  0
   -0.0046   -3.5420   -0.6209 C   0  0  0  0  0  0  0  0  0  0  0  0
   -1.3668   -3.4492   -0.2306 O   0  0  0  0  0  0  0  0  0  0  0  0
   -1.8432   -2.2753    0.4107 C   0  0  0  0  0  0  0  0  0  0  0  0
    0.4600   -4.6685   -1.2382 C   0  0  0  0  0  0  0  0  0  0  0  0
   -0.2356   -4.6491   -2.4759 O   0  0  0  0  0  0  0  0  0  0  0  0
    1.7408   -4.7751   -1.6269 C   0  0  0  0  0  0  0  0  0  0  0  0
    1.6160   -4.7889   -3.1417 C   0  0  0  0  0  0  0  0  0  0  0  0
    2.9889   -4.9923   -3.7614 C   0  0  0  0  0  0  0  0  0  0  0  0
    3.2236   -6.0715   -4.5556 C   0  0  0  0  0  0  0  0  0  0  0  0
    4.5966   -6.2748   -5.1753 C   0  0  0  0  0  0  0  0  0  0  0  0
    2.1129   -7.0740   -4.8234 C   0  0  0  0  0  0  0  0  0  0  0  0
    1.6492   -7.6796   -3.5087 C   0  0  0  0  0  0  0  0  0  0  0  0
    1.1293   -6.5784   -2.5990 C   0  0  0  0  0  0  0  0  0  0  0  0
   -0.1589   -6.6080   -2.1628 C   0  0  0  0  0  0  0  0  0  0  0  0
   -0.6788   -5.5068   -1.2531 C   0  0  0  0  0  0  0  0  0  0  0  0
   -1.0784   -7.7423   -2.5851 C   0  0  0  0  0  0  0  0  0  0  0  0
   -1.2033   -7.7561   -4.0999 C   0  0  0  0  0  0  0  0  0  0  0  0
    0.1697   -7.9594   -4.7196 C   0  0  0  0  0  0  0  0  0  0  0  0
    0.4044   -9.0387   -5.5139 C   0  0  0  0  0  0  0  0  0  0  0  0
    1.7774   -9.2420   -6.1336 C   0  0  0  0  0  0  0  0  0  0  0  0
   -0.7063  -10.0411   -5.7816 C   0  0  0  0  0  0  0  0  0  0  0  0
    2.6293   -3.7868   -1.4246 C   0  0  0  0  0  0  0  0  0  0  0  0
    3.6047   -4.3984   -0.4322 C   0  0  0  0  0  0  0  0  0  0  0  0
    2.2502   -2.6432   -0.8156 C   0  0  0  0  0  0  0  0  0  0  0  0
    3.0846   -1.7047   -0.6209 O   0  0  0  0  0  0  0  0  0  0  0  0
    0.6260    0.6342    0.7504 H   0  0  0  0  0  0  0  0  0  0  0  0
    0.6260    0.1623   -0.9320 H   0  0  0  0  0  0  0  0  0  0  0  0
    2.0526   -0.0874    0.0454 H   0  0  0  0  0  0  0  0  0  0  0  0
   -1.3025   -2.1218    1.3212 H   0  0  0  0  0  0  0  0  0  0  0  0
   -1.7013   -1.4337   -0.2347 H   0  0  0  0  0  0  0  0  0  0  0  0
   -2.8849   -2.3858    0.6289 H   0  0  0  0  0  0  0  0  0  0  0  0
    0.2803   -5.4791   -0.5633 H   0  0  0  0  0  0  0  0  0  0  0  0
    0.0326   -3.8384   -2.9964 H   0  0  0  0  0  0  0  0  0  0  0  0
    2.1339   -5.6379   -1.1310 H   0  0  0  0  0  0  0  0  0  0  0  0
    0.9687   -5.5874   -3.4389 H   0  0  0  0  0  0  0  0  0  0  0  0
    1.2089   -3.8571   -3.4745 H   0  0  0  0  0  0  0  0  0  0  0  0
    3.7708   -4.2866   -3.5729 H   0  0  0  0  0  0  0  0  0  0  0  0
    5.0037   -7.2067   -4.8425 H   0  0  0  0  0  0  0  0  0  0  0  0
    4.5087   -6.2846   -6.2417 H   0  0  0  0  0  0  0  0  0  0  0  0
    5.2439   -5.4764   -4.8781 H   0  0  0  0  0  0  0  0  0  0  0  0
    1.2915   -6.5782   -5.2971 H   0  0  0  0  0  0  0  0  0  0  0  0
    2.4789   -7.8492   -5.4638 H   0  0  0  0  0  0  0  0  0  0  0  0
    0.8673   -8.3853   -3.6972 H   0  0  0  0  0  0  0  0  0  0  0  0
    2.4706   -8.1754   -3.0350 H   0  0  0  0  0  0  0  0  0  0  0  0
    1.7766   -5.7799   -2.3017 H   0  0  0  0  0  0  0  0  0  0  0  0
   -1.5002   -5.0109   -1.7268 H   0  0  0  0  0  0  0  0  0  0  0  0
   -1.0052   -5.9331   -0.3276 H   0  0  0  0  0  0  0  0  0  0  0  0
    0.1031   -4.8011   -1.0646 H   0  0  0  0  0  0  0  0  0  0  0  0
   -0.6713   -8.6741   -2.2522 H   0  0  0  0  0  0  0  0  0  0  0  0
   -2.0449   -7.5991   -2.1488 H   0  0  0  0  0  0  0  0  0  0  0  0
   -1.8505   -8.5546   -4.3971 H   0  0  0  0  0  0  0  0  0  0  0  0
   -1.6103   -6.8242   -4.4327 H   0  0  0  0  0  0  0  0  0  0  0  0
    0.9516   -7.2537   -4.5311 H   0  0  0  0  0  0  0  0  0  0  0  0
    2.1845  -10.1739   -5.8007 H   0  0  0  0  0  0  0  0  0  0  0  0
    1.6895   -9.2517   -7.1999 H   0  0  0  0  0  0  0  0  0  0  0  0
    2.4247   -8.4435   -5.8363 H   0  0  0  0  0  0  0  0  0  0  0  0
   -1.0327  -10.4675   -4.8561 H   0  0  0  0  0  0  0  0  0  0  0  0
   -1.5277   -9.5453   -6.2553 H   0  0  0  0  0  0  0  0  0  0  0  0
   -0.3404  -10.8163   -6.4220 H   0  0  0  0  0  0  0  0  0  0  0  0
    3.0073   -3.5117   -2.3871 H   0  0  0  0  0  0  0  0  0  0  0  0
    4.0130   -5.2986   -0.8419 H   0  0  0  0  0  0  0  0  0  0  0  0
    4.3957   -3.7050   -0.2361 H   0  0  0  0  0  0  0  0  0  0  0  0
    3.0922   -4.6221    0.4800 H   0  0  0  0  0  0  0  0  0  0  0  0
  1  2  1  0  0  0  0
  1 29  1  0  0  0  0
  1 30  1  0  0  0  0
  1 31  1  0  0  0  0
  2  3  1  0  0  0  0
  3  4  2  0  0  0  0
  3 27  1  0  0  0  0
  4  5  1  0  0  0  0
  4  7  1  0  0  0  0
  5  6  1  0  0  0  0
  6 32  1  0  0  0  0
  6 33  1  0  0  0  0
  6 34  1  0  0  0  0
  7  8  1  0  0  0  0
  7  9  1  0  0  0  0
  7 35  1  0  0  0  0
  8 36  1  0  0  0  0
  9 10  1  0  0  0  0
  9 25  1  0  0  0  0
  9 37  1  0  0  0  0
 10 11  1  0  0  0  0
 10 38  1  0  0  0  0
 10 39  1  0  0  0  0
 11 12  2  0  0  0  0
 11 40  1  0  0  0  0
 12 13  1  0  0  0  0
 12 14  1  0  0  0  0
 13 41  1  0  0  0  0
 13 42  1  0  0  0  0
 13 43  1  0  0  0  0
 14 15  1  0  0  0  0
 14 44  1  0  0  0  0
 14 45  1  0  0  0  0
 15 16  1  0  0  0  0
 15 46  1  0  0  0  0
 15 47  1  0  0  0  0
 16 17  2  0  0  0  0
 16 48  1  0  0  0  0
 17 18  1  0  0  0  0
 17 19  1  0  0  0  0
 18 49  1  0  0  0  0
 18 50  1  0  0  0  0
 18 51  1  0  0  0  0
 19 20  1  0  0  0  0
 19 52  1  0  0  0  0
 19 53  1  0  0  0  0
 20 21  1  0  0  0  0
 20 54  1  0  0  0  0
 20 55  1  0  0  0  0
 21 22  2  0  0  0  0
 21 56  1  0  0  0  0
 22 23  1  0  0  0  0
 22 24  1  0  0  0  0
 23 57  1  0  0  0  0
 23 58  1  0  0  0  0
 23 59  1  0  0  0  0
 24 60  1  0  0  0  0
 24 61  1  0  0  0  0
 24 62  1  0  0  0  0
 25 26  1  0  0  0  0
 25 27  1  0  0  0  0
 25 63  1  0  0  0  0
 26 64  1  0  0  0  0
 26 65  1  0  0  0  0
 26 66  1  0  0  0  0
 27 28  2  0  0  0  0
M  END
