REMARK  Name = 
REMARK  18 active torsions:
REMARK  status: ('A' for Active; 'I' for Inactive)
REMARK    1  A    between atoms: C_1  and  O_2
REMARK    2  A    between atoms: O_2  and  C_3
REMARK    3  A    between atoms: C_4  and  O_5
REMARK    4  A    between atoms: O_5  and  C_6
REMARK    5  A    between atoms: C_7  and  O_8
REMARK    6  A    between atoms: C_9  and  C_10
REMARK    7  A    between atoms: C_10  and  C_11
REMARK    8  A    between atoms: C_12  and  C_13
REMARK    9  A    between atoms: C_12  and  C_14
REMARK   10  A    between atoms: C_14  and  C_15
REMARK   11  A    between atoms: C_15  and  C_16
REMARK   12  A    between atoms: C_17  and  C_18
REMARK   13  A    between atoms: C_17  and  C_19
REMARK   14  A    between atoms: C_19  and  C_20
REMARK   15  A    between atoms: C_20  and  C_21
REMARK   16  A    between atoms: C_22  and  C_23
REMARK   17  A    between atoms: C_22  and  C_24
REMARK   18  A    between atoms: C_25  and  C_26
REMARK                            x       y       z     vdW  Elec       q    Type
REMARK                         _______ _______ _______ _____ _____    ______ ____
ROOT
ATOM      1  C   UNL     1       1.267   4.370  -3.707  0.00  0.00    +0.000 C 
ENDROOT
BRANCH   1   5
ATOM      2  C   UNL     1       0.804   1.096  -2.134  0.00  0.00    +0.000 C 
ATOM      3  C   UNL     1      -0.135   1.522  -3.030  0.00  0.00    +0.000 C 
ATOM      4  C   UNL     1       0.218   2.423  -3.994  0.00  0.00    +0.000 C 
ATOM      5  C   UNL     1       1.468   2.909  -4.073  0.00  0.00    +0.000 C 
ATOM      6  C   UNL     1       2.432   2.532  -3.216  0.00  0.00    +0.000 C 
ATOM      7  C   UNL     1       3.410   1.783  -4.107  0.00  0.00    +0.000 C 
ATOM      8  C   UNL     1       2.165   1.640  -2.239  0.00  0.00    +0.000 C 
ATOM      9  O   UNL     1       3.072   1.278  -1.425  0.00  0.00    +0.000 OA
BRANCH   2  11
ATOM     10  C   UNL     1       0.934   0.018   0.073  0.00  0.00    +0.000 C 
ATOM     11  O   UNL     1       0.461   0.026  -1.266  0.00  0.00    +0.000 OA
ENDBRANCH   2  11
BRANCH   3  12
ATOM     12  O   UNL     1      -1.466   1.032  -2.961  0.00  0.00    +0.000 OA
ATOM     13  C   UNL     1      -1.826   0.096  -1.956  0.00  0.00    +0.000 C 
ENDBRANCH   3  12
BRANCH   4  14
ATOM     14  O   UNL     1      -0.535   3.571  -3.632  0.00  0.00    +0.000 OA
ATOM     15  H   UNL     1      -0.237   3.895  -2.734  0.00  0.00    +0.000 HD
ENDBRANCH   4  14
ENDBRANCH   1   5
BRANCH   1  16
ATOM     16  C   UNL     1       2.589   5.109  -3.827  0.00  0.00    +0.000 C 
ATOM     17  C   UNL     1       2.708   6.155  -4.689  0.00  0.00    +0.000 C 
ATOM     18  C   UNL     1       4.031   6.894  -4.810  0.00  0.00    +0.000 C 
BRANCH  17  19
ATOM     19  C   UNL     1       1.518   6.585  -5.531  0.00  0.00    +0.000 C 
BRANCH  19  20
ATOM     20  C   UNL     1       1.079   5.429  -6.415  0.00  0.00    +0.000 C 
BRANCH  20  21
ATOM     21  C   UNL     1       0.683   4.247  -5.544  0.00  0.00    +0.000 C 
ATOM     22  C   UNL     1      -0.581   3.748  -5.609  0.00  0.00    +0.000 C 
ATOM     23  C   UNL     1      -0.976   2.566  -4.738  0.00  0.00    +0.000 C 
BRANCH  22  24
ATOM     24  C   UNL     1      -1.597   4.372  -6.551  0.00  0.00    +0.000 C 
BRANCH  24  25
ATOM     25  C   UNL     1      -1.798   5.833  -6.184  0.00  0.00    +0.000 C 
BRANCH  25  26
ATOM     26  C   UNL     1      -0.475   6.572  -6.305  0.00  0.00    +0.000 C 
ATOM     27  C   UNL     1      -0.357   7.618  -7.167  0.00  0.00    +0.000 C 
ATOM     28  C   UNL     1       0.966   8.357  -7.287  0.00  0.00    +0.000 C 
ATOM     29  C   UNL     1      -1.547   8.047  -8.008  0.00  0.00    +0.000 C 
ENDBRANCH  25  26
ENDBRANCH  24  25
ENDBRANCH  22  24
ENDBRANCH  20  21
ENDBRANCH  19  20
ENDBRANCH  17  19
ENDBRANCH   1  16
TORSDOF 11
