REMARK  Name = 
REMARK  10 active torsions:
REMARK  status: ('A' for Active; 'I' for Inactive)
REMARK    1  A    between atoms: C_2  and  O_3
REMARK    2  A    between atoms: C_2  and  C_4
REMARK    3  A    between atoms: C_4  and  C_5
REMARK    4  A    between atoms: C_5  and  O_6
REMARK    5  A    between atoms: C_5  and  C_7
REMARK    6  A    between atoms: C_5  and  C_10
REMARK    7  A    between atoms: C_7  and  O_9
REMARK    8  A    between atoms: C_10  and  O_11
REMARK    9  A    between atoms: C_10  and  C_12
REMARK   10  A    between atoms: C_12  and  O_14
REMARK                            x       y       z     vdW  Elec       q    Type
REMARK                         _______ _______ _______ _____ _____    ______ ____
ROOT
ATOM      1  C   UNL     1       2.725   2.309  -0.586  0.00  0.00    +0.000 C 
ENDROOT
BRANCH   1   2
ATOM      2  O   UNL     1       1.329   2.560  -0.518  0.00  0.00    +0.000 OA
ATOM      3  H   UNL     1       0.829   1.724  -0.745  0.00  0.00    +0.000 HD
ENDBRANCH   1   2
BRANCH   1   4
ATOM      4  C   UNL     1       3.485   3.580  -0.240  0.00  0.00    +0.000 C 
ATOM      5  O   UNL     1       4.279   4.096  -1.087  0.00  0.00    +0.000 OA
BRANCH   4   6
ATOM      6  O   UNL     1       3.307   4.189   1.030  0.00  0.00    +0.000 OA
ATOM      7  H   UNL     1       3.807   5.025   1.258  0.00  0.00    +0.000 HD
ENDBRANCH   4   6
ENDBRANCH   1   4
BRANCH   1   8
ATOM      8  C   UNL     1       3.092   1.214   0.402  0.00  0.00    +0.000 C 
BRANCH   8  10
ATOM      9  O   UNL     1       1.061  -0.056   0.056  0.00  0.00    +0.000 OA
ATOM     10  C   UNL     1       2.332  -0.056   0.056  0.00  0.00    +0.000 C 
BRANCH  10  11
ATOM     11  O   UNL     1       3.042  -1.242  -0.267  0.00  0.00    +0.000 OA
ATOM     12  H   UNL     1       4.042  -1.242  -0.267  0.00  0.00    +0.000 HD
ENDBRANCH  10  11
ENDBRANCH   8  10
ENDBRANCH   1   8
BRANCH   1  13
ATOM     13  C   UNL     1       3.092   1.867  -1.993  0.00  0.00    +0.000 C 
BRANCH  13  14
ATOM     14  O   UNL     1       4.488   1.616  -2.061  0.00  0.00    +0.000 OA
ATOM     15  H   UNL     1       4.988   2.452  -1.833  0.00  0.00    +0.000 HD
ENDBRANCH  13  14
BRANCH  13  16
ATOM     16  C   UNL     1       2.332   0.597  -2.339  0.00  0.00    +0.000 C 
ATOM     17  O   UNL     1       1.538   0.582  -3.331  0.00  0.00    +0.000 OA
BRANCH  16  18
ATOM     18  O   UNL     1       2.510  -0.573  -1.554  0.00  0.00    +0.000 OA
ATOM     19  H   UNL     1       2.010  -1.409  -1.781  0.00  0.00    +0.000 HD
ENDBRANCH  16  18
ENDBRANCH  13  16
ENDBRANCH   1  13
TORSDOF 10
