
 OpenBabel03132514253D

 22 21  0  0  0  0  0  0  0  0999 V2000
    1.0612   -0.0558    0.0560 O   0  0  0  0  0  0  0  0  0  0  0  0
    2.3321   -0.0558    0.0560 C   0  0  0  0  0  0  0  0  0  0  0  0
    3.0421   -1.2423   -0.2672 O   0  0  0  0  0  0  0  0  0  0  0  0
    3.0921    1.2143    0.4021 C   0  0  0  0  0  0  0  0  0  0  0  0
    2.7249    2.3095   -0.5859 C   0  0  0  0  0  0  0  0  0  0  0  0
    1.3288    2.5599   -0.5176 O   0  0  0  0  0  0  0  0  0  0  0  0
    3.4849    3.5796   -0.2398 C   0  0  0  0  0  0  0  0  0  0  0  0
    4.2792    4.0956   -1.0872 O   0  0  0  0  0  0  0  0  0  0  0  0
    3.3074    4.1895    1.0301 O   0  0  0  0  0  0  0  0  0  0  0  0
    3.0921    1.8667   -1.9928 C   0  0  0  0  0  0  0  0  0  0  0  0
    4.4882    1.6164   -2.0610 O   0  0  0  0  0  0  0  0  0  0  0  0
    2.3321    0.5966   -2.3388 C   0  0  0  0  0  0  0  0  0  0  0  0
    1.5378    0.5817   -3.3308 O   0  0  0  0  0  0  0  0  0  0  0  0
    2.5096   -0.5732   -1.5537 O   0  0  0  0  0  0  0  0  0  0  0  0
    4.0421   -1.2423   -0.2672 H   0  0  0  0  0  0  0  0  0  0  0  0
    2.8336    1.5260    1.3925 H   0  0  0  0  0  0  0  0  0  0  0  0
    4.1441    1.0256    0.3507 H   0  0  0  0  0  0  0  0  0  0  0  0
    0.8288    1.7243   -0.7453 H   0  0  0  0  0  0  0  0  0  0  0  0
    3.8074    5.0251    1.2578 H   0  0  0  0  0  0  0  0  0  0  0  0
    2.8336    2.6377   -2.6882 H   0  0  0  0  0  0  0  0  0  0  0  0
    4.9882    2.4519   -1.8334 H   0  0  0  0  0  0  0  0  0  0  0  0
    2.0096   -1.4088   -1.7813 H   0  0  0  0  0  0  0  0  0  0  0  0
  1  2  2  0  0  0  0
  2  3  1  0  0  0  0
  2  4  1  0  0  0  0
  3 15  1  0  0  0  0
  4  5  1  0  0  0  0
  4 16  1  0  0  0  0
  4 17  1  0  0  0  0
  5  6  1  0  0  0  0
  5  7  1  0  0  0  0
  5 10  1  0  0  0  0
  6 18  1  0  0  0  0
  7  8  2  0  0  0  0
  7  9  1  0  0  0  0
  9 19  1  0  0  0  0
 10 11  1  0  0  0  0
 10 12  1  0  0  0  0
 10 20  1  0  0  0  0
 11 21  1  0  0  0  0
 12 13  2  0  0  0  0
 12 14  1  0  0  0  0
 14 22  1  0  0  0  0
M  END
