REMARK  Name = 
REMARK  10 active torsions:
REMARK  status: ('A' for Active; 'I' for Inactive)
REMARK    1  A    between atoms: C_2  and  O_3
REMARK    2  A    between atoms: C_2  and  C_4
REMARK    3  A    between atoms: C_4  and  C_5
REMARK    4  A    between atoms: C_5  and  O_6
REMARK    5  A    between atoms: C_5  and  C_7
REMARK    6  A    between atoms: C_5  and  C_10
REMARK    7  A    between atoms: C_7  and  O_9
REMARK    8  A    between atoms: C_10  and  O_11
REMARK    9  A    between atoms: C_10  and  C_12
REMARK   10  A    between atoms: C_12  and  O_14
REMARK                            x       y       z     vdW  Elec       q    Type
REMARK                         _______ _______ _______ _____ _____    ______ ____
ROOT
ATOM      1  C   UNL     1       2.602  -2.079  -1.186  0.00  0.00    +0.000 C 
ENDROOT
BRANCH   1   2
ATOM      2  O   UNL     1       1.205  -2.213  -1.409  0.00  0.00    +0.000 OA
ATOM      3  H   UNL     1       0.705  -1.766  -0.667  0.00  0.00    +0.000 HD
ENDBRANCH   1   2
BRANCH   1   4
ATOM      4  C   UNL     1       3.361  -2.760  -2.313  0.00  0.00    +0.000 C 
ATOM      5  O   UNL     1       4.156  -3.718  -2.056  0.00  0.00    +0.000 OA
BRANCH   4   6
ATOM      6  O   UNL     1       3.184  -2.325  -3.653  0.00  0.00    +0.000 OA
ATOM      7  H   UNL     1       3.684  -2.773  -4.394  0.00  0.00    +0.000 HD
ENDBRANCH   4   6
ENDBRANCH   1   4
BRANCH   1   8
ATOM      8  C   UNL     1       2.969  -0.605  -1.146  0.00  0.00    +0.000 C 
BRANCH   8  10
ATOM      9  O   UNL     1       0.938   0.076  -0.019  0.00  0.00    +0.000 OA
ATOM     10  C   UNL     1       2.209   0.076  -0.019  0.00  0.00    +0.000 C 
BRANCH  10  11
ATOM     11  O   UNL     1       2.919   0.712   1.034  0.00  0.00    +0.000 OA
ATOM     12  H   UNL     1       3.919   0.712   1.034  0.00  0.00    +0.000 HD
ENDBRANCH  10  11
ENDBRANCH   8  10
ENDBRANCH   1   8
BRANCH   1  13
ATOM     13  C   UNL     1       2.969  -2.729   0.138  0.00  0.00    +0.000 C 
BRANCH  13  14
ATOM     14  O   UNL     1       4.365  -2.595   0.360  0.00  0.00    +0.000 OA
ATOM     15  H   UNL     1       4.865  -3.043  -0.382  0.00  0.00    +0.000 HD
ENDBRANCH  13  14
BRANCH  13  16
ATOM     16  C   UNL     1       2.209  -2.049   1.264  0.00  0.00    +0.000 C 
ATOM     17  O   UNL     1       1.414  -2.722   1.993  0.00  0.00    +0.000 OA
BRANCH  16  18
ATOM     18  O   UNL     1       2.386  -0.660   1.503  0.00  0.00    +0.000 OA
ATOM     19  H   UNL     1       1.886  -0.212   2.244  0.00  0.00    +0.000 HD
ENDBRANCH  16  18
ENDBRANCH  13  16
ENDBRANCH   1  13
TORSDOF 10
