REMARK  Name = 
REMARK  9 active torsions:
REMARK  status: ('A' for Active; 'I' for Inactive)
REMARK    1  A    between atoms: C_2  and  C_3
REMARK    2  A    between atoms: C_3  and  C_4
REMARK    3  A    between atoms: C_4  and  O_5
REMARK    4  A    between atoms: C_4  and  C_6
REMARK    5  A    between atoms: C_6  and  O_7
REMARK    6  A    between atoms: C_6  and  C_8
REMARK    7  A    between atoms: C_8  and  O_9
REMARK    8  A    between atoms: C_8  and  C_10
REMARK    9  A    between atoms: C_10  and  O_11
REMARK                            x       y       z     vdW  Elec       q    Type
REMARK                         _______ _______ _______ _____ _____    ______ ____
ROOT
ATOM      1  C   UNL     1       4.739   2.281  -1.954  0.00  0.00    +0.000 C 
ENDROOT
BRANCH   1   2
ATOM      2  O   UNL     1       3.816   2.755  -2.923  0.00  0.00    +0.000 OA
ATOM      3  H   UNL     1       3.241   1.998  -3.234  0.00  0.00    +0.000 HD
ENDBRANCH   1   2
BRANCH   1   4
ATOM      4  C   UNL     1       3.979   1.702  -0.771  0.00  0.00    +0.000 C 
BRANCH   4   5
ATOM      5  O   UNL     1       4.902   1.228   0.198  0.00  0.00    +0.000 OA
ATOM      6  H   UNL     1       4.402   0.847   0.976  0.00  0.00    +0.000 HD
ENDBRANCH   4   5
BRANCH   4   7
ATOM      7  C   UNL     1       3.105   0.552  -1.244  0.00  0.00    +0.000 C 
BRANCH   7   9
ATOM      8  O   UNL     1       1.074  -0.027  -0.062  0.00  0.00    +0.000 OA
ATOM      9  C   UNL     1       2.345  -0.027  -0.062  0.00  0.00    +0.000 C 
ENDBRANCH   7   9
ENDBRANCH   4   7
ENDBRANCH   1   4
BRANCH   1  10
ATOM     10  C   UNL     1       5.613   3.431  -1.480  0.00  0.00    +0.000 C 
BRANCH  10  11
ATOM     11  O   UNL     1       6.535   2.957  -0.511  0.00  0.00    +0.000 OA
ATOM     12  H   UNL     1       6.035   2.576   0.267  0.00  0.00    +0.000 HD
ENDBRANCH  10  11
BRANCH  10  13
ATOM     13  C   UNL     1       6.373   4.009  -2.663  0.00  0.00    +0.000 C 
BRANCH  13  14
ATOM     14  O   UNL     1       5.450   4.484  -3.632  0.00  0.00    +0.000 OA
ATOM     15  H   UNL     1       4.875   3.727  -3.944  0.00  0.00    +0.000 HD
ENDBRANCH  13  14
ENDBRANCH  10  13
ENDBRANCH   1  10
TORSDOF 9
