
 OpenBabel03132512093D

 85 88  0  0  0  0  0  0  0  0999 V2000
    0.9677   -0.0767   -0.0555 C   0  0  0  0  0  0  0  0  0  0  0  0
    0.4610   -0.5410    1.3003 C   0  0  0  0  0  0  0  0  0  0  0  0
   -0.4129    0.3764    2.1400 C   0  0  0  0  0  0  0  0  0  0  0  0
    0.7897   -1.7777    1.7622 C   0  0  0  0  0  0  0  0  0  0  0  0
    1.6635   -2.6951    0.9225 C   0  0  0  0  0  0  0  0  0  0  0  0
    2.9302   -3.0324    1.6920 C   0  0  0  0  0  0  0  0  0  0  0  0
    2.5630   -3.7315    2.9908 C   0  0  0  0  0  0  0  0  0  0  0  0
    1.8030   -5.0107    2.6803 C   0  0  0  0  0  0  0  0  0  0  0  0
    3.7463   -4.0465    3.7097 O   0  0  0  0  0  0  0  0  0  0  0  0
    1.6891   -2.8140    3.8305 C   0  0  0  0  0  0  0  0  0  0  0  0
    0.6647   -2.1648    2.8969 C   0  0  0  0  0  0  0  0  0  0  0  0
    1.2597   -2.0442    1.4920 C   0  0  0  0  0  0  0  0  0  0  0  0
    0.4507   -2.9045    0.5197 C   0  0  0  0  0  0  0  0  0  0  0  0
   -0.7724   -2.9064   -0.3826 C   0  0  0  0  0  0  0  0  0  0  0  0
    0.9617   -3.6623    4.8750 C   0  0  0  0  0  0  0  0  0  0  0  0
    1.9008   -4.7563    5.3882 C   0  0  0  0  0  0  0  0  0  0  0  0
    2.8923   -5.0263    4.4083 O   0  0  0  0  0  0  0  0  0  0  0  0
    1.0989   -6.0290    5.6656 C   0  0  0  0  0  0  0  0  0  0  0  0
    1.8975   -7.2473    5.1986 C   0  0  0  0  0  0  0  0  0  0  0  0
    1.0175   -8.1228    4.3038 C   0  0  0  0  0  0  0  0  0  0  0  0
    0.0358   -8.4870    5.4056 C   0  0  0  0  0  0  0  0  0  0  0  0
    1.8662   -8.7128    3.1758 C   0  0  0  0  0  0  0  0  0  0  0  0
    1.0119   -8.8952    1.9470 C   0  0  0  0  0  0  0  0  0  0  0  0
    0.8027   -7.8618    1.1160 C   0  0  0  0  0  0  0  0  0  0  0  0
    0.0724   -6.9153    1.8823 O   0  0  0  0  0  0  0  0  0  0  0  0
   -0.0181   -8.1120   -0.0544 C   0  0  0  0  0  0  0  0  0  0  0  0
    0.2588   -9.5114   -0.5794 C   0  0  0  0  0  0  0  0  0  0  0  0
   -1.4863   -7.9948    0.3211 C   0  0  0  0  0  0  0  0  0  0  0  0
    0.3156   -7.0839   -1.1379 C   0  0  0  0  0  0  0  0  0  0  0  0
    0.9564   -5.9327   -0.5280 C   0  0  0  0  0  0  0  0  0  0  0  0
    0.7587   -4.7417   -1.1157 C   0  0  0  0  0  0  0  0  0  0  0  0
    1.3858   -3.5013   -0.5332 C   0  0  0  0  0  0  0  0  0  0  0  0
    2.2010   -2.6643   -1.5055 C   0  0  0  0  0  0  0  0  0  0  0  0
    0.6110    0.9133   -0.2496 H   0  0  0  0  0  0  0  0  0  0  0  0
    0.6110   -0.7398   -0.8157 H   0  0  0  0  0  0  0  0  0  0  0  0
    2.0377   -0.0767   -0.0555 H   0  0  0  0  0  0  0  0  0  0  0  0
   -1.3580   -0.0936    2.3155 H   0  0  0  0  0  0  0  0  0  0  0  0
    0.0687    0.5695    3.0758 H   0  0  0  0  0  0  0  0  0  0  0  0
   -0.5645    1.2991    1.6198 H   0  0  0  0  0  0  0  0  0  0  0  0
    0.4330   -2.1045    2.7165 H   0  0  0  0  0  0  0  0  0  0  0  0
    1.1285   -3.5956    0.7039 H   0  0  0  0  0  0  0  0  0  0  0  0
    1.9220   -2.2030    0.0082 H   0  0  0  0  0  0  0  0  0  0  0  0
    3.5454   -3.6782    1.1009 H   0  0  0  0  0  0  0  0  0  0  0  0
    3.4652   -2.1319    1.9106 H   0  0  0  0  0  0  0  0  0  0  0  0
    2.4182   -5.6565    2.0892 H   0  0  0  0  0  0  0  0  0  0  0  0
    1.5445   -5.5028    3.5946 H   0  0  0  0  0  0  0  0  0  0  0  0
    0.9113   -4.7733    2.1386 H   0  0  0  0  0  0  0  0  0  0  0  0
    4.3212   -4.6501    3.1573 H   0  0  0  0  0  0  0  0  0  0  0  0
    2.2723   -2.0631    4.3212 H   0  0  0  0  0  0  0  0  0  0  0  0
   -0.2176   -2.7691    2.8600 H   0  0  0  0  0  0  0  0  0  0  0  0
    0.4150   -1.1910    3.2633 H   0  0  0  0  0  0  0  0  0  0  0  0
    2.2755   -2.3801    1.5049 H   0  0  0  0  0  0  0  0  0  0  0  0
    1.2257   -1.0222    1.1769 H   0  0  0  0  0  0  0  0  0  0  0  0
   -1.6483   -2.7210    0.2034 H   0  0  0  0  0  0  0  0  0  0  0  0
   -0.6704   -2.1411   -1.1234 H   0  0  0  0  0  0  0  0  0  0  0  0
   -0.8597   -3.8585   -0.8631 H   0  0  0  0  0  0  0  0  0  0  0  0
    0.3281   -3.6687    5.7372 H   0  0  0  0  0  0  0  0  0  0  0  0
    2.3713   -4.4275    6.2912 H   0  0  0  0  0  0  0  0  0  0  0  0
    2.4522   -5.3336    3.5645 H   0  0  0  0  0  0  0  0  0  0  0  0
    0.9084   -6.1086    6.7155 H   0  0  0  0  0  0  0  0  0  0  0  0
    0.1698   -5.9874    5.1365 H   0  0  0  0  0  0  0  0  0  0  0  0
    2.5975   -7.7073    5.8643 H   0  0  0  0  0  0  0  0  0  0  0  0
   -0.6899   -7.7075    5.5088 H   0  0  0  0  0  0  0  0  0  0  0  0
   -0.4577   -9.4028    5.1552 H   0  0  0  0  0  0  0  0  0  0  0  0
    0.5638   -8.6071    6.3284 H   0  0  0  0  0  0  0  0  0  0  0  0
    2.6747   -8.0483    2.9527 H   0  0  0  0  0  0  0  0  0  0  0  0
    2.2576   -9.6604    3.4820 H   0  0  0  0  0  0  0  0  0  0  0  0
    1.5801   -9.5789    1.3514 H   0  0  0  0  0  0  0  0  0  0  0  0
    0.0499   -9.2197    2.2849 H   0  0  0  0  0  0  0  0  0  0  0  0
    1.7587   -7.5246    0.7736 H   0  0  0  0  0  0  0  0  0  0  0  0
   -0.8024   -7.3135    2.1582 H   0  0  0  0  0  0  0  0  0  0  0  0
    0.0256  -10.2294    0.1789 H   0  0  0  0  0  0  0  0  0  0  0  0
   -0.3465   -9.6948   -1.4425 H   0  0  0  0  0  0  0  0  0  0  0  0
    1.2921   -9.5950   -0.8441 H   0  0  0  0  0  0  0  0  0  0  0  0
   -1.6822   -7.0102    0.6915 H   0  0  0  0  0  0  0  0  0  0  0  0
   -2.0911   -8.1778   -0.5424 H   0  0  0  0  0  0  0  0  0  0  0  0
   -1.7192   -8.7137    1.0786 H   0  0  0  0  0  0  0  0  0  0  0  0
    0.1405   -7.0514   -2.1929 H   0  0  0  0  0  0  0  0  0  0  0  0
    0.5055   -5.8436    0.4383 H   0  0  0  0  0  0  0  0  0  0  0  0
    2.0104   -6.1171   -0.5191 H   0  0  0  0  0  0  0  0  0  0  0  0
    1.2525   -4.8476   -2.0590 H   0  0  0  0  0  0  0  0  0  0  0  0
   -0.2983   -4.5759   -1.1302 H   0  0  0  0  0  0  0  0  0  0  0  0
    1.5424   -2.0700   -2.1037 H   0  0  0  0  0  0  0  0  0  0  0  0
    2.8612   -2.0242   -0.9585 H   0  0  0  0  0  0  0  0  0  0  0  0
    2.7733   -3.3096   -2.1387 H   0  0  0  0  0  0  0  0  0  0  0  0
  1  2  1  0  0  0  0
  1 34  1  0  0  0  0
  1 35  1  0  0  0  0
  1 36  1  0  0  0  0
  2  3  1  0  0  0  0
  2  4  2  0  0  0  0
  3 37  1  0  0  0  0
  3 38  1  0  0  0  0
  3 39  1  0  0  0  0
  4  5  1  0  0  0  0
  4 40  1  0  0  0  0
  5  6  1  0  0  0  0
  5 41  1  0  0  0  0
  5 42  1  0  0  0  0
  6  7  1  0  0  0  0
  6 43  1  0  0  0  0
  6 44  1  0  0  0  0
  7  8  1  0  0  0  0
  7  9  1  0  0  0  0
  7 10  1  0  0  0  0
  8 45  1  0  0  0  0
  8 46  1  0  0  0  0
  8 47  1  0  0  0  0
  9 48  1  0  0  0  0
 10 11  1  0  0  0  0
 10 15  1  0  0  0  0
 10 49  1  0  0  0  0
 11 12  1  0  0  0  0
 11 50  1  0  0  0  0
 11 51  1  0  0  0  0
 12 13  1  0  0  0  0
 12 52  1  0  0  0  0
 12 53  1  0  0  0  0
 13 14  1  0  0  0  0
 13 15  1  0  0  0  0
 13 32  1  0  0  0  0
 14 54  1  0  0  0  0
 14 55  1  0  0  0  0
 14 56  1  0  0  0  0
 15 16  1  0  0  0  0
 15 57  1  0  0  0  0
 16 17  1  0  0  0  0
 16 18  1  0  0  0  0
 16 58  1  0  0  0  0
 17 59  1  0  0  0  0
 18 19  1  0  0  0  0
 18 60  1  0  0  0  0
 18 61  1  0  0  0  0
 19 20  1  0  0  0  0
 19 32  1  0  0  0  0
 19 62  1  0  0  0  0
 20 21  1  0  0  0  0
 20 22  1  0  0  0  0
 20 29  1  0  0  0  0
 21 63  1  0  0  0  0
 21 64  1  0  0  0  0
 21 65  1  0  0  0  0
 22 23  1  0  0  0  0
 22 66  1  0  0  0  0
 22 67  1  0  0  0  0
 23 24  1  0  0  0  0
 23 68  1  0  0  0  0
 23 69  1  0  0  0  0
 24 25  1  0  0  0  0
 24 26  1  0  0  0  0
 24 70  1  0  0  0  0
 25 71  1  0  0  0  0
 26 27  1  0  0  0  0
 26 28  1  0  0  0  0
 26 29  1  0  0  0  0
 27 72  1  0  0  0  0
 27 73  1  0  0  0  0
 27 74  1  0  0  0  0
 28 75  1  0  0  0  0
 28 76  1  0  0  0  0
 28 77  1  0  0  0  0
 29 30  1  0  0  0  0
 29 78  1  0  0  0  0
 30 31  1  0  0  0  0
 30 79  1  0  0  0  0
 30 80  1  0  0  0  0
 31 32  1  0  0  0  0
 31 81  1  0  0  0  0
 31 82  1  0  0  0  0
 32 33  1  0  0  0  0
 33 83  1  0  0  0  0
 33 84  1  0  0  0  0
 33 85  1  0  0  0  0
M  END
