REMARK  Name = 
REMARK  15 active torsions:
REMARK  status: ('A' for Active; 'I' for Inactive)
REMARK    1  A    between atoms: C_1  and  C_2
REMARK    2  A    between atoms: C_2  and  C_3
REMARK    3  A    between atoms: C_4  and  C_5
REMARK    4  A    between atoms: C_5  and  C_6
REMARK    5  A    between atoms: C_6  and  C_7
REMARK    6  A    between atoms: C_7  and  C_8
REMARK    7  A    between atoms: C_7  and  O_9
REMARK    8  A    between atoms: C_7  and  C_10
REMARK    9  A    between atoms: C_13  and  C_14
REMARK   10  A    between atoms: C_16  and  O_17
REMARK   11  A    between atoms: C_20  and  C_21
REMARK   12  A    between atoms: C_24  and  O_25
REMARK   13  A    between atoms: C_26  and  C_27
REMARK   14  A    between atoms: C_26  and  C_28
REMARK   15  A    between atoms: C_32  and  C_33
REMARK                            x       y       z     vdW  Elec       q    Type
REMARK                         _______ _______ _______ _____ _____    ______ ____
ROOT
ATOM      1  C   UNL     1       1.689  -2.814   3.830  0.00  0.00    +0.000 C 
ATOM      2  C   UNL     1       0.665  -2.165   2.897  0.00  0.00    +0.000 C 
ATOM      3  C   UNL     1       1.260  -2.044   1.492  0.00  0.00    +0.000 C 
ATOM      4  C   UNL     1       0.451  -2.905   0.520  0.00  0.00    +0.000 C 
ATOM      5  C   UNL     1      -0.772  -2.906  -0.383  0.00  0.00    +0.000 C 
ATOM      6  C   UNL     1       0.962  -3.662   4.875  0.00  0.00    +0.000 C 
ATOM      7  C   UNL     1       1.901  -4.756   5.388  0.00  0.00    +0.000 C 
ATOM      8  C   UNL     1       1.099  -6.029   5.666  0.00  0.00    +0.000 C 
ATOM      9  C   UNL     1       1.897  -7.247   5.199  0.00  0.00    +0.000 C 
ATOM     10  C   UNL     1       1.018  -8.123   4.304  0.00  0.00    +0.000 C 
ATOM     11  C   UNL     1       0.036  -8.487   5.406  0.00  0.00    +0.000 C 
ATOM     12  C   UNL     1       1.866  -8.713   3.176  0.00  0.00    +0.000 C 
ATOM     13  C   UNL     1       1.012  -8.895   1.947  0.00  0.00    +0.000 C 
ATOM     14  C   UNL     1       0.803  -7.862   1.116  0.00  0.00    +0.000 C 
ATOM     15  C   UNL     1      -0.018  -8.112  -0.054  0.00  0.00    +0.000 C 
ATOM     16  C   UNL     1       0.259  -9.511  -0.579  0.00  0.00    +0.000 C 
ATOM     17  C   UNL     1      -1.486  -7.995   0.321  0.00  0.00    +0.000 C 
ATOM     18  C   UNL     1       0.316  -7.084  -1.138  0.00  0.00    +0.000 C 
ATOM     19  C   UNL     1       0.956  -5.933  -0.528  0.00  0.00    +0.000 C 
ATOM     20  C   UNL     1       0.759  -4.742  -1.116  0.00  0.00    +0.000 C 
ATOM     21  C   UNL     1       1.386  -3.501  -0.533  0.00  0.00    +0.000 C 
ATOM     22  C   UNL     1       2.201  -2.664  -1.506  0.00  0.00    +0.000 C 
ENDROOT
BRANCH   1  23
ATOM     23  C   UNL     1       2.563  -3.732   2.991  0.00  0.00    +0.000 C 
ATOM     24  C   UNL     1       1.803  -5.011   2.680  0.00  0.00    +0.000 C 
BRANCH  23  25
ATOM     25  O   UNL     1       3.746  -4.046   3.710  0.00  0.00    +0.000 OA
ATOM     26  H   UNL     1       4.321  -4.650   3.157  0.00  0.00    +0.000 HD
ENDBRANCH  23  25
BRANCH  23  27
ATOM     27  C   UNL     1       2.930  -3.032   1.692  0.00  0.00    +0.000 C 
BRANCH  27  28
ATOM     28  C   UNL     1       1.663  -2.695   0.922  0.00  0.00    +0.000 C 
BRANCH  28  32
ATOM     29  C   UNL     1       0.968  -0.077  -0.056  0.00  0.00    +0.000 C 
ATOM     30  C   UNL     1       0.461  -0.541   1.300  0.00  0.00    +0.000 C 
ATOM     31  C   UNL     1      -0.413   0.376   2.140  0.00  0.00    +0.000 C 
ATOM     32  C   UNL     1       0.790  -1.778   1.762  0.00  0.00    +0.000 C 
ENDBRANCH  28  32
ENDBRANCH  27  28
ENDBRANCH  23  27
ENDBRANCH   1  23
BRANCH   7  33
ATOM     33  O   UNL     1       2.892  -5.026   4.408  0.00  0.00    +0.000 OA
ATOM     34  H   UNL     1       2.452  -5.334   3.564  0.00  0.00    +0.000 HD
ENDBRANCH   7  33
BRANCH  14  35
ATOM     35  O   UNL     1       0.072  -6.915   1.882  0.00  0.00    +0.000 OA
ATOM     36  H   UNL     1      -0.802  -7.314   2.158  0.00  0.00    +0.000 HD
ENDBRANCH  14  35
TORSDOF 7
