
 OpenBabel03132514253D

 37 39  0  0  0  0  0  0  0  0999 V2000
    1.0396   -0.0717   -0.0573 C   0  0  0  0  0  0  0  0  0  0  0  0
    0.3594    0.8557   -0.7840 C   0  0  0  0  0  0  0  0  0  0  0  0
    1.0061    2.0914   -1.2976 C   0  0  0  0  0  0  0  0  0  0  0  0
    0.7449    2.6668   -2.4003 O   0  0  0  0  0  0  0  0  0  0  0  0
    2.0411    2.5506   -0.2681 O   0  0  0  0  0  0  0  0  0  0  0  0
    1.4094    3.5857    0.6644 C   0  0  0  0  0  0  0  0  0  0  0  0
    1.5457    3.1224    2.1163 C   0  0  0  0  0  0  0  0  0  0  0  0
    0.3469    3.6205    2.9263 C   0  0  0  0  0  0  0  0  0  0  0  0
    0.4583    5.1110    3.2028 C   0  0  0  0  0  0  0  0  0  0  0  0
   -0.1576    2.5005    3.8375 C   0  0  0  0  0  0  0  0  0  0  0  0
   -1.6868    2.4909    3.8383 C   0  0  0  0  0  0  0  0  0  0  0  0
   -2.1924    1.2130    3.1664 C   0  0  0  0  0  0  0  0  0  0  0  0
   -1.8944    1.2730    1.6658 C   0  0  0  0  0  0  0  0  0  0  0  0
   -1.1460    2.2284    1.0513 C   0  0  0  0  0  0  0  0  0  0  0  0
   -2.5682    0.0929    0.9646 C   0  0  0  0  0  0  0  0  0  0  0  0
   -1.7535   -0.3141   -0.2640 C   0  0  0  0  0  0  0  0  0  0  0  0
   -1.0128    0.8829   -0.8053 C   0  0  0  0  0  0  0  0  0  0  0  0
    0.5046   -0.8011    0.5142 H   0  0  0  0  0  0  0  0  0  0  0  0
    2.1096   -0.0717   -0.0573 H   0  0  0  0  0  0  0  0  0  0  0  0
    1.4840    4.6529    0.6874 H   0  0  0  0  0  0  0  0  0  0  0  0
    2.4474    3.5192    2.5338 H   0  0  0  0  0  0  0  0  0  0  0  0
    1.5778    2.0533    2.1478 H   0  0  0  0  0  0  0  0  0  0  0  0
    1.3521    5.3049    3.7580 H   0  0  0  0  0  0  0  0  0  0  0  0
    0.4915    5.6442    2.2757 H   0  0  0  0  0  0  0  0  0  0  0  0
   -0.3904    5.4330    3.7693 H   0  0  0  0  0  0  0  0  0  0  0  0
    0.1976    2.6648    4.8333 H   0  0  0  0  0  0  0  0  0  0  0  0
    0.2043    1.5595    3.4792 H   0  0  0  0  0  0  0  0  0  0  0  0
   -2.0477    3.3422    3.2998 H   0  0  0  0  0  0  0  0  0  0  0  0
   -2.0426    2.5277    4.8468 H   0  0  0  0  0  0  0  0  0  0  0  0
   -3.2481    1.1246    3.3171 H   0  0  0  0  0  0  0  0  0  0  0  0
   -1.6987    0.3657    3.5945 H   0  0  0  0  0  0  0  0  0  0  0  0
   -0.7120    3.0199    1.6259 H   0  0  0  0  0  0  0  0  0  0  0  0
   -0.9912    2.1885   -0.0067 H   0  0  0  0  0  0  0  0  0  0  0  0
   -3.4121   -0.5644    0.9380 H   0  0  0  0  0  0  0  0  0  0  0  0
   -2.4139   -0.6910   -1.0168 H   0  0  0  0  0  0  0  0  0  0  0  0
   -1.0504   -1.0723    0.0112 H   0  0  0  0  0  0  0  0  0  0  0  0
   -1.9000    0.9799   -1.3955 H   0  0  0  0  0  0  0  0  0  0  0  0
  1  2  2  0  0  0  0
  1 18  1  0  0  0  0
  1 19  1  0  0  0  0
  2  3  1  0  0  0  0
  2 17  1  0  0  0  0
  3  4  2  0  0  0  0
  3  5  1  0  0  0  0
  5  6  1  0  0  0  0
  6  7  1  0  0  0  0
  6 17  1  0  0  0  0
  6 20  1  0  0  0  0
  7  8  1  0  0  0  0
  7 21  1  0  0  0  0
  7 22  1  0  0  0  0
  8  9  1  0  0  0  0
  8 10  1  0  0  0  0
  8 15  1  0  0  0  0
  9 23  1  0  0  0  0
  9 24  1  0  0  0  0
  9 25  1  0  0  0  0
 10 11  1  0  0  0  0
 10 26  1  0  0  0  0
 10 27  1  0  0  0  0
 11 12  1  0  0  0  0
 11 28  1  0  0  0  0
 11 29  1  0  0  0  0
 12 13  1  0  0  0  0
 12 30  1  0  0  0  0
 12 31  1  0  0  0  0
 13 14  2  0  0  0  0
 13 15  1  0  0  0  0
 14 32  1  0  0  0  0
 14 33  1  0  0  0  0
 15 16  1  0  0  0  0
 15 34  1  0  0  0  0
 16 17  1  0  0  0  0
 16 35  1  0  0  0  0
 16 36  1  0  0  0  0
 17 37  1  0  0  0  0
M  END
