REMARK  Name = 
REMARK  1 active torsions:
REMARK  status: ('A' for Active; 'I' for Inactive)
REMARK    1  A    between atoms: C_8  and  C_9
REMARK                            x       y       z     vdW  Elec       q    Type
REMARK                         _______ _______ _______ _____ _____    ______ ____
ROOT
ATOM      1  C   UNL     1       1.040  -0.072  -0.057  0.00  0.00    +0.000 C 
ATOM      2  C   UNL     1       0.359   0.856  -0.784  0.00  0.00    +0.000 C 
ATOM      3  C   UNL     1       1.006   2.091  -1.298  0.00  0.00    +0.000 C 
ATOM      4  O   UNL     1       0.745   2.667  -2.400  0.00  0.00    +0.000 OA
ATOM      5  O   UNL     1       2.041   2.551  -0.268  0.00  0.00    +0.000 OA
ATOM      6  C   UNL     1       1.409   3.586   0.664  0.00  0.00    +0.000 C 
ATOM      7  C   UNL     1       1.546   3.122   2.116  0.00  0.00    +0.000 C 
ATOM      8  C   UNL     1       0.347   3.620   2.926  0.00  0.00    +0.000 C 
ATOM      9  C   UNL     1       0.458   5.111   3.203  0.00  0.00    +0.000 C 
ATOM     10  C   UNL     1      -0.158   2.501   3.837  0.00  0.00    +0.000 C 
ATOM     11  C   UNL     1      -1.687   2.491   3.838  0.00  0.00    +0.000 C 
ATOM     12  C   UNL     1      -2.192   1.213   3.166  0.00  0.00    +0.000 C 
ATOM     13  C   UNL     1      -1.894   1.273   1.666  0.00  0.00    +0.000 C 
ATOM     14  C   UNL     1      -1.146   2.228   1.051  0.00  0.00    +0.000 C 
ATOM     15  C   UNL     1      -2.568   0.093   0.965  0.00  0.00    +0.000 C 
ATOM     16  C   UNL     1      -1.754  -0.314  -0.264  0.00  0.00    +0.000 C 
ATOM     17  C   UNL     1      -1.013   0.883  -0.805  0.00  0.00    +0.000 C 
ENDROOT
TORSDOF 0
