
 OpenBabel03132512093D

 37 39  0  0  0  0  0  0  0  0999 V2000
    1.0073   -0.0814   -0.0576 C   0  0  0  0  0  0  0  0  0  0  0  0
    0.3271    0.3773   -1.1427 C   0  0  0  0  0  0  0  0  0  0  0  0
    1.0216    0.9392   -2.3306 C   0  0  0  0  0  0  0  0  0  0  0  0
    0.7917    0.6337   -3.5427 O   0  0  0  0  0  0  0  0  0  0  0  0
    2.0615    1.9494   -1.8408 O   0  0  0  0  0  0  0  0  0  0  0  0
    1.4570    3.3544   -1.8593 C   0  0  0  0  0  0  0  0  0  0  0  0
    1.5624    3.9792   -0.4665 C   0  0  0  0  0  0  0  0  0  0  0  0
    0.3736    4.9142   -0.2346 C   0  0  0  0  0  0  0  0  0  0  0  0
    0.5340    6.2043   -1.0222 C   0  0  0  0  0  0  0  0  0  0  0  0
   -0.1789    4.7016    1.1756 C   0  0  0  0  0  0  0  0  0  0  0  0
   -1.7074    4.7244    1.1355 C   0  0  0  0  0  0  0  0  0  0  0  0
   -2.2504    3.3352    1.4750 C   0  0  0  0  0  0  0  0  0  0  0  0
   -1.9354    2.3698    0.3291 C   0  0  0  0  0  0  0  0  0  0  0  0
   -1.1480    2.6540   -0.7432 C   0  0  0  0  0  0  0  0  0  0  0  0
   -2.6428    1.0369    0.5763 C   0  0  0  0  0  0  0  0  0  0  0  0
   -1.8305   -0.1032   -0.0394 C   0  0  0  0  0  0  0  0  0  0  0  0
   -1.0431    0.4096   -1.2191 C   0  0  0  0  0  0  0  0  0  0  0  0
    0.4723   -0.4422    0.7959 H   0  0  0  0  0  0  0  0  0  0  0  0
    2.0773   -0.0814   -0.0576 H   0  0  0  0  0  0  0  0  0  0  0  0
    1.5684    4.1612   -2.5533 H   0  0  0  0  0  0  0  0  0  0  0  0
    2.4731    4.5361   -0.3939 H   0  0  0  0  0  0  0  0  0  0  0  0
    1.5569    3.2055    0.2726 H   0  0  0  0  0  0  0  0  0  0  0  0
    1.4285    6.7028   -0.7118 H   0  0  0  0  0  0  0  0  0  0  0  0
    0.5952    5.9794   -2.0665 H   0  0  0  0  0  0  0  0  0  0  0  0
   -0.3086    6.8389   -0.8427 H   0  0  0  0  0  0  0  0  0  0  0  0
    0.1719    5.4833    1.8167 H   0  0  0  0  0  0  0  0  0  0  0  0
    0.1537    3.7559    1.5497 H   0  0  0  0  0  0  0  0  0  0  0  0
   -2.0330    5.0034    0.1552 H   0  0  0  0  0  0  0  0  0  0  0  0
   -2.0718    5.4334    1.8493 H   0  0  0  0  0  0  0  0  0  0  0  0
   -3.3100    3.3906    1.6136 H   0  0  0  0  0  0  0  0  0  0  0  0
   -1.7909    2.9827    2.3748 H   0  0  0  0  0  0  0  0  0  0  0  0
   -0.6925    3.6182   -0.8320 H   0  0  0  0  0  0  0  0  0  0  0  0
   -0.9840    1.9134   -1.4979 H   0  0  0  0  0  0  0  0  0  0  0  0
   -3.5088    0.5470    0.9699 H   0  0  0  0  0  0  0  0  0  0  0  0
   -2.4960   -0.8743   -0.3672 H   0  0  0  0  0  0  0  0  0  0  0  0
   -1.1570   -0.4957    0.6936 H   0  0  0  0  0  0  0  0  0  0  0  0
   -1.9204    0.1037   -1.7498 H   0  0  0  0  0  0  0  0  0  0  0  0
  1  2  2  0  0  0  0
  1 18  1  0  0  0  0
  1 19  1  0  0  0  0
  2  3  1  0  0  0  0
  2 17  1  0  0  0  0
  3  4  2  0  0  0  0
  3  5  1  0  0  0  0
  5  6  1  0  0  0  0
  6  7  1  0  0  0  0
  6 17  1  0  0  0  0
  6 20  1  0  0  0  0
  7  8  1  0  0  0  0
  7 21  1  0  0  0  0
  7 22  1  0  0  0  0
  8  9  1  0  0  0  0
  8 10  1  0  0  0  0
  8 15  1  0  0  0  0
  9 23  1  0  0  0  0
  9 24  1  0  0  0  0
  9 25  1  0  0  0  0
 10 11  1  0  0  0  0
 10 26  1  0  0  0  0
 10 27  1  0  0  0  0
 11 12  1  0  0  0  0
 11 28  1  0  0  0  0
 11 29  1  0  0  0  0
 12 13  1  0  0  0  0
 12 30  1  0  0  0  0
 12 31  1  0  0  0  0
 13 14  2  0  0  0  0
 13 15  1  0  0  0  0
 14 32  1  0  0  0  0
 14 33  1  0  0  0  0
 15 16  1  0  0  0  0
 15 34  1  0  0  0  0
 16 17  1  0  0  0  0
 16 35  1  0  0  0  0
 16 36  1  0  0  0  0
 17 37  1  0  0  0  0
M  END
