REMARK  Name = 
REMARK  1 active torsions:
REMARK  status: ('A' for Active; 'I' for Inactive)
REMARK    1  A    between atoms: C_8  and  C_9
REMARK                            x       y       z     vdW  Elec       q    Type
REMARK                         _______ _______ _______ _____ _____    ______ ____
ROOT
ATOM      1  C   UNL     1       1.007  -0.081  -0.058  0.00  0.00    +0.000 C 
ATOM      2  C   UNL     1       0.327   0.377  -1.143  0.00  0.00    +0.000 C 
ATOM      3  C   UNL     1       1.022   0.939  -2.331  0.00  0.00    +0.000 C 
ATOM      4  O   UNL     1       0.792   0.634  -3.543  0.00  0.00    +0.000 OA
ATOM      5  O   UNL     1       2.062   1.949  -1.841  0.00  0.00    +0.000 OA
ATOM      6  C   UNL     1       1.457   3.354  -1.859  0.00  0.00    +0.000 C 
ATOM      7  C   UNL     1       1.562   3.979  -0.467  0.00  0.00    +0.000 C 
ATOM      8  C   UNL     1       0.374   4.914  -0.235  0.00  0.00    +0.000 C 
ATOM      9  C   UNL     1       0.534   6.204  -1.022  0.00  0.00    +0.000 C 
ATOM     10  C   UNL     1      -0.179   4.702   1.176  0.00  0.00    +0.000 C 
ATOM     11  C   UNL     1      -1.707   4.724   1.135  0.00  0.00    +0.000 C 
ATOM     12  C   UNL     1      -2.250   3.335   1.475  0.00  0.00    +0.000 C 
ATOM     13  C   UNL     1      -1.935   2.370   0.329  0.00  0.00    +0.000 C 
ATOM     14  C   UNL     1      -1.148   2.654  -0.743  0.00  0.00    +0.000 C 
ATOM     15  C   UNL     1      -2.643   1.037   0.576  0.00  0.00    +0.000 C 
ATOM     16  C   UNL     1      -1.831  -0.103  -0.039  0.00  0.00    +0.000 C 
ATOM     17  C   UNL     1      -1.043   0.410  -1.219  0.00  0.00    +0.000 C 
ENDROOT
TORSDOF 0
