REMARK  Name = 
REMARK  9 active torsions:
REMARK  status: ('A' for Active; 'I' for Inactive)
REMARK    1  A    between atoms: C_1  and  C_2
REMARK    2  A    between atoms: C_2  and  C_3
REMARK    3  A    between atoms: C_4  and  C_5
REMARK    4  A    between atoms: C_5  and  O_6
REMARK    5  A    between atoms: C_7  and  C_8
REMARK    6  A    between atoms: C_13  and  C_14
REMARK    7  A    between atoms: C_13  and  C_15
REMARK    8  A    between atoms: C_16  and  C_17
REMARK    9  A    between atoms: C_17  and  O_19
REMARK                            x       y       z     vdW  Elec       q    Type
REMARK                         _______ _______ _______ _____ _____    ______ ____
ROOT
ATOM      1  C   UNL     1      -1.745   1.738  -3.895  0.00  0.00    +0.000 C 
ATOM      2  C   UNL     1      -2.131   0.320  -3.879  0.00  0.00    +0.000 C 
ATOM      3  C   UNL     1      -1.076  -0.774  -3.904  0.00  0.00    +0.000 C 
ATOM      4  C   UNL     1      -3.460   0.011  -3.840  0.00  0.00    +0.000 C 
ATOM      5  C   UNL     1      -4.383   1.017  -3.830  0.00  0.00    +0.000 C 
ATOM      6  O   UNL     1      -5.620   0.726  -3.805  0.00  0.00    +0.000 OA
ATOM      7  C   UNL     1      -4.011   2.307  -3.845  0.00  0.00    +0.000 C 
ATOM      8  C   UNL     1      -2.719   2.674  -3.877  0.00  0.00    +0.000 C 
ATOM      9  C   UNL     1      -2.583   3.338  -5.237  0.00  0.00    +0.000 C 
ATOM     10  C   UNL     1      -2.477   3.531  -2.645  0.00  0.00    +0.000 C 
ENDROOT
BRANCH   1  12
ATOM     11  C   UNL     1      -0.418   0.924  -1.944  0.00  0.00    +0.000 C 
ATOM     12  C   UNL     1      -0.871   1.979  -2.675  0.00  0.00    +0.000 C 
BRANCH  11  14
ATOM     13  C   UNL     1       0.963  -0.014   0.092  0.00  0.00    +0.000 C 
ATOM     14  C   UNL     1       0.456   1.165  -0.724  0.00  0.00    +0.000 C 
ATOM     15  C   UNL     1       0.785   2.434  -0.362  0.00  0.00    +0.000 C 
BRANCH  15  16
ATOM     16  C   UNL     1       1.659   2.674   0.858  0.00  0.00    +0.000 C 
ATOM     17  O   UNL     1       1.966   3.860   1.196  0.00  0.00    +0.000 OA
BRANCH  16  18
ATOM     18  O   UNL     1       2.132   1.574   1.620  0.00  0.00    +0.000 OA
ATOM     19  H   UNL     1       2.707   1.732   2.423  0.00  0.00    +0.000 HD
ENDBRANCH  16  18
ENDBRANCH  15  16
ENDBRANCH  11  14
ENDBRANCH   1  12
BRANCH   1  20
ATOM     20  O   UNL     1      -1.121   1.913  -5.158  0.00  0.00    +0.000 OA
ATOM     21  H   UNL     1      -1.784   1.730  -5.885  0.00  0.00    +0.000 HD
ENDBRANCH   1  20
TORSDOF 5
