REMARK  Name = 
REMARK  9 active torsions:
REMARK  status: ('A' for Active; 'I' for Inactive)
REMARK    1  A    between atoms: C_1  and  C_2
REMARK    2  A    between atoms: C_2  and  C_3
REMARK    3  A    between atoms: C_4  and  C_5
REMARK    4  A    between atoms: C_5  and  O_6
REMARK    5  A    between atoms: C_7  and  C_8
REMARK    6  A    between atoms: C_13  and  C_14
REMARK    7  A    between atoms: C_13  and  C_15
REMARK    8  A    between atoms: C_16  and  C_17
REMARK    9  A    between atoms: C_17  and  O_19
REMARK                            x       y       z     vdW  Elec       q    Type
REMARK                         _______ _______ _______ _____ _____    ______ ____
ROOT
ATOM      1  C   UNL     1      -1.672   4.271  -1.231  0.00  0.00    +0.000 C 
ATOM      2  C   UNL     1      -3.030   3.774  -0.967  0.00  0.00    +0.000 C 
ATOM      3  C   UNL     1      -3.366   2.301  -1.136  0.00  0.00    +0.000 C 
ATOM      4  C   UNL     1      -3.981   4.668  -0.567  0.00  0.00    +0.000 C 
ATOM      5  C   UNL     1      -3.650   5.987  -0.436  0.00  0.00    +0.000 C 
ATOM      6  O   UNL     1      -4.540   6.819  -0.074  0.00  0.00    +0.000 OA
ATOM      7  C   UNL     1      -2.404   6.422  -0.681  0.00  0.00    +0.000 C 
ATOM      8  C   UNL     1      -1.424   5.589  -1.072  0.00  0.00    +0.000 C 
ATOM      9  C   UNL     1      -1.120   6.055  -2.486  0.00  0.00    +0.000 C 
ATOM     10  C   UNL     1      -0.316   5.703  -0.038  0.00  0.00    +0.000 C 
ENDROOT
BRANCH   1  12
ATOM     11  C   UNL     1      -0.345   2.255  -0.598  0.00  0.00    +0.000 C 
ATOM     12  C   UNL     1      -0.798   3.493  -0.261  0.00  0.00    +0.000 C 
BRANCH  11  14
ATOM     13  C   UNL     1       1.036   0.093  -0.004  0.00  0.00    +0.000 C 
ATOM     14  C   UNL     1       0.529   1.476   0.372  0.00  0.00    +0.000 C 
ATOM     15  C   UNL     1       0.858   2.017   1.576  0.00  0.00    +0.000 C 
BRANCH  15  16
ATOM     16  C   UNL     1       1.732   1.238   2.546  0.00  0.00    +0.000 C 
ATOM     17  O   UNL     1       2.039   1.743   3.671  0.00  0.00    +0.000 OA
BRANCH  16  18
ATOM     18  O   UNL     1       2.205  -0.054   2.195  0.00  0.00    +0.000 OA
ATOM     19  H   UNL     1       2.780  -0.566   2.833  0.00  0.00    +0.000 HD
ENDBRANCH  16  18
ENDBRANCH  15  16
ENDBRANCH  11  14
ENDBRANCH   1  12
BRANCH   1  20
ATOM     20  O   UNL     1      -1.428   4.086  -2.617  0.00  0.00    +0.000 OA
ATOM     21  H   UNL     1      -2.063   4.649  -3.146  0.00  0.00    +0.000 HD
ENDBRANCH   1  20
TORSDOF 5
