REMARK  Name = 
REMARK  3 active torsions:
REMARK  status: ('A' for Active; 'I' for Inactive)
REMARK    1  A    between atoms: C_1  and  N_2
REMARK    2  A    between atoms: C_6  and  C_7
REMARK    3  A    between atoms: C_7  and  O_9
REMARK                            x       y       z     vdW  Elec       q    Type
REMARK                         _______ _______ _______ _____ _____    ______ ____
ROOT
ATOM      1  C   UNL     1      -2.427   0.006   0.129  0.00  0.00    +0.000 C 
ATOM      2  N   UNL     1      -0.952  -0.009  -0.057  0.00  0.00    +0.000 N 
ATOM      3  C   UNL     1      -0.257  -1.199  -0.090  0.00  0.00    +0.000 A 
ATOM      4  C   UNL     1       1.111  -1.182   0.007  0.00  0.00    +0.000 A 
ATOM      5  C   UNL     1       1.859   0.014   0.108  0.00  0.00    +0.000 A 
ATOM      6  C   UNL     1       1.096   1.190  -0.003  0.00  0.00    +0.000 A 
ATOM      7  C   UNL     1      -0.272   1.181  -0.084  0.00  0.00    +0.000 A 
ENDROOT
BRANCH   6   8
ATOM      8  C   UNL     1       1.819   2.527  -0.035  0.00  0.00    +0.000 C 
ATOM      9  O   UNL     1       3.087   2.566   0.039  0.00  0.00    +0.000 OA
BRANCH   8  10
ATOM     10  O   UNL     1       1.077   3.732  -0.146  0.00  0.00    +0.000 OA
ATOM     11  H   UNL     1       1.552   4.612  -0.167  0.00  0.00    +0.000 HD
ENDBRANCH   8  10
ENDBRANCH   6   8
TORSDOF 2
