
 OpenBabel03132512083D

 18 18  0  0  0  0  0  0  0  0999 V2000
   -2.4270    0.0060    0.1290 C   0  0  0  0  0  0  0  0  0  0  0  0
   -0.9520   -0.0090   -0.0570 N   0  3  0  0  0  0  0  0  0  0  0  0
   -0.2570   -1.1990   -0.0900 C   0  0  0  0  0  0  0  0  0  0  0  0
    1.1110   -1.1820    0.0070 C   0  0  0  0  0  0  0  0  0  0  0  0
    1.8590    0.0140    0.1080 C   0  0  0  0  0  0  0  0  0  0  0  0
    1.0960    1.1900   -0.0030 C   0  0  0  0  0  0  0  0  0  0  0  0
    1.8187    2.5268   -0.0345 C   0  0  0  0  0  0  0  0  0  0  0  0
    3.0869    2.5655    0.0389 O   0  0  0  0  0  0  0  0  0  0  0  0
    1.0769    3.7325   -0.1458 O   0  0  0  0  0  0  0  0  0  0  0  0
   -0.2720    1.1810   -0.0840 C   0  0  0  0  0  0  0  0  0  0  0  0
   -2.8926   -0.5342   -0.6687 H   0  0  0  0  0  0  0  0  0  0  0  0
   -2.6734   -0.4543    1.0630 H   0  0  0  0  0  0  0  0  0  0  0  0
   -2.7765    1.0173    0.1265 H   0  0  0  0  0  0  0  0  0  0  0  0
   -0.7798   -2.1272   -0.1903 H   0  0  0  0  0  0  0  0  0  0  0  0
    1.6354   -2.1147    0.0062 H   0  0  0  0  0  0  0  0  0  0  0  0
    2.9186    0.0233    0.2567 H   0  0  0  0  0  0  0  0  0  0  0  0
    1.5523    4.6120   -0.1665 H   0  0  0  0  0  0  0  0  0  0  0  0
   -0.8092    2.1025   -0.1683 H   0  0  0  0  0  0  0  0  0  0  0  0
  1  2  1  0  0  0  0
  1 11  1  0  0  0  0
  1 12  1  0  0  0  0
  1 13  1  0  0  0  0
  2  3  1  0  0  0  0
  2 10  2  0  0  0  0
  3  4  2  0  0  0  0
  3 14  1  0  0  0  0
  4  5  1  0  0  0  0
  4 15  1  0  0  0  0
  5  6  2  0  0  0  0
  5 16  1  0  0  0  0
  6  7  1  0  0  0  0
  6 10  1  0  0  0  0
  7  8  2  0  0  0  0
  7  9  1  0  0  0  0
  9 17  1  0  0  0  0
 10 18  1  0  0  0  0
M  CHG  1   2   1
M  END
