
 OpenBabel03132514253D

 57 61  0  0  0  0  0  0  0  0999 V2000
    2.4920    0.0040   -0.0140 C   0  0  0  0  0  0  0  0  0  0  0  0
    0.9910   -0.0050    0.0130 C   0  0  0  0  0  0  0  0  0  0  0  0
    0.2580   -1.1970    0.0060 C   0  0  0  0  0  0  0  0  0  0  0  0
   -1.1080   -1.2020    0.0010 C   0  0  0  0  0  0  0  0  0  0  0  0
   -1.7990    0.0100   -0.0130 C   0  0  0  0  0  0  0  0  0  0  0  0
   -1.1090    1.2060    0.0020 C   0  0  0  0  0  0  0  0  0  0  0  0
   -1.8341    2.4847    0.0146 N   0  0  0  0  0  0  0  0  0  0  0  0
   -3.3041    2.4961    0.0113 C   0  0  0  0  0  0  0  0  0  0  0  0
   -3.9309    3.6016    0.0222 O   0  0  0  0  0  0  0  0  0  0  0  0
   -4.0489    1.2289   -0.0046 N   0  0  0  0  0  0  0  0  0  0  0  0
   -5.3319    0.7856   -0.5638 C   0  0  0  0  0  0  0  0  0  0  0  0
   -5.1957   -0.5453   -1.2779 C   0  0  0  0  0  0  0  0  0  0  0  0
   -4.7062   -1.5714   -0.3496 N   0  0  0  0  0  0  0  0  0  0  0  0
   -5.3880   -2.8345   -0.0322 C   0  0  0  0  0  0  0  0  0  0  0  0
   -6.5003   -3.1116   -0.5811 O   0  0  0  0  0  0  0  0  0  0  0  0
   -4.7628   -3.8091    0.9525 C   0  0  0  0  0  0  0  0  0  0  0  0
   -4.5506   -3.3168    2.2512 C   0  0  0  0  0  0  0  0  0  0  0  0
   -3.8452   -4.0628    3.1789 N   0  0  0  0  0  0  0  0  0  0  0  0
   -3.3512   -5.3247    2.8200 C   0  0  0  0  0  0  0  0  0  0  0  0
   -3.5724   -5.8123    1.5059 C   0  0  0  0  0  0  0  0  0  0  0  0
   -4.2889   -5.0261    0.5830 C   0  0  0  0  0  0  0  0  0  0  0  0
   -3.0734   -7.0720    1.1442 C   0  0  0  0  0  0  0  0  0  0  0  0
   -3.2627   -7.5234   -0.0286 O   0  0  0  0  0  0  0  0  0  0  0  0
   -2.3724   -7.8207    2.0758 N   0  0  0  0  0  0  0  0  0  0  0  0
   -2.1595   -7.3265    3.3759 C   0  0  0  0  0  0  0  0  0  0  0  0
   -1.5140   -8.0283    4.2161 O   0  0  0  0  0  0  0  0  0  0  0  0
   -2.6345   -6.1106    3.7438 N   0  0  0  0  0  0  0  0  0  0  0  0
   -2.4013   -5.6125    5.1070 C   0  0  0  0  0  0  0  0  0  0  0  0
   -2.7078   -4.1585    5.4716 C   0  0  0  0  0  0  0  0  0  0  0  0
   -3.5915   -5.2854    6.0122 C   0  0  0  0  0  0  0  0  0  0  0  0
   -3.4232   -1.1282    0.2095 C   0  0  0  0  0  0  0  0  0  0  0  0
   -3.5594    0.2028    0.9237 C   0  0  0  0  0  0  0  0  0  0  0  0
    0.2750    1.1840    0.0050 C   0  0  0  0  0  0  0  0  0  0  0  0
    2.8673   -0.5130    0.8443 H   0  0  0  0  0  0  0  0  0  0  0  0
    2.8357   -0.4833   -0.9024 H   0  0  0  0  0  0  0  0  0  0  0  0
    2.8429    1.0148   -0.0032 H   0  0  0  0  0  0  0  0  0  0  0  0
    0.7818   -2.1300    0.0045 H   0  0  0  0  0  0  0  0  0  0  0  0
   -1.6438   -2.1281    0.0078 H   0  0  0  0  0  0  0  0  0  0  0  0
   -2.8688    0.0127   -0.0355 H   0  0  0  0  0  0  0  0  0  0  0  0
   -1.3173    3.3640    0.0257 H   0  0  0  0  0  0  0  0  0  0  0  0
   -6.0259    0.6654    0.2416 H   0  0  0  0  0  0  0  0  0  0  0  0
   -5.6802    1.5198   -1.2598 H   0  0  0  0  0  0  0  0  0  0  0  0
   -4.4974   -0.4402   -2.0818 H   0  0  0  0  0  0  0  0  0  0  0  0
   -6.1506   -0.8408   -1.6597 H   0  0  0  0  0  0  0  0  0  0  0  0
   -4.9375   -2.3575    2.5251 H   0  0  0  0  0  0  0  0  0  0  0  0
   -4.4598   -5.3881   -0.4092 H   0  0  0  0  0  0  0  0  0  0  0  0
   -2.0077   -8.7374    1.8171 H   0  0  0  0  0  0  0  0  0  0  0  0
   -1.5376   -6.2397    5.1813 H   0  0  0  0  0  0  0  0  0  0  0  0
   -2.1531   -3.3554    5.9102 H   0  0  0  0  0  0  0  0  0  0  0  0
   -3.0888   -3.4895    4.7285 H   0  0  0  0  0  0  0  0  0  0  0  0
   -4.6393   -5.5013    5.9922 H   0  0  0  0  0  0  0  0  0  0  0  0
   -3.5592   -5.5392    7.0512 H   0  0  0  0  0  0  0  0  0  0  0  0
   -2.7292   -1.0080   -0.5959 H   0  0  0  0  0  0  0  0  0  0  0  0
   -3.0749   -1.8624    0.9056 H   0  0  0  0  0  0  0  0  0  0  0  0
   -2.6010    0.4983    1.2967 H   0  0  0  0  0  0  0  0  0  0  0  0
   -4.2510    0.1001    1.7336 H   0  0  0  0  0  0  0  0  0  0  0  0
    0.8088    2.1113    0.0010 H   0  0  0  0  0  0  0  0  0  0  0  0
  1  2  1  0  0  0  0
  1 34  1  0  0  0  0
  1 35  1  0  0  0  0
  1 36  1  0  0  0  0
  2  3  1  0  0  0  0
  2 33  2  0  0  0  0
  3  4  2  0  0  0  0
  3 37  1  0  0  0  0
  4  5  1  0  0  0  0
  4 38  1  0  0  0  0
  5  6  2  0  0  0  0
  5 39  1  0  0  0  0
  6  7  1  0  0  0  0
  6 33  1  0  0  0  0
  7  8  1  0  0  0  0
  7 40  1  0  0  0  0
  8  9  2  0  0  0  0
  8 10  1  0  0  0  0
 10 11  1  0  0  0  0
 10 32  1  0  0  0  0
 11 12  1  0  0  0  0
 11 41  1  0  0  0  0
 11 42  1  0  0  0  0
 12 13  1  0  0  0  0
 12 43  1  0  0  0  0
 12 44  1  0  0  0  0
 13 14  1  0  0  0  0
 13 31  1  0  0  0  0
 14 15  2  0  0  0  0
 14 16  1  0  0  0  0
 16 17  1  0  0  0  0
 16 21  2  0  0  0  0
 17 18  2  0  0  0  0
 17 45  1  0  0  0  0
 18 19  1  0  0  0  0
 19 20  2  0  0  0  0
 19 27  1  0  0  0  0
 20 21  1  0  0  0  0
 20 22  1  0  0  0  0
 21 46  1  0  0  0  0
 22 23  2  0  0  0  0
 22 24  1  0  0  0  0
 24 25  1  0  0  0  0
 24 47  1  0  0  0  0
 25 26  2  0  0  0  0
 25 27  1  0  0  0  0
 27 28  1  0  0  0  0
 28 29  1  0  0  0  0
 28 30  1  0  0  0  0
 28 48  1  0  0  0  0
 29 30  1  0  0  0  0
 29 49  1  0  0  0  0
 29 50  1  0  0  0  0
 30 51  1  0  0  0  0
 30 52  1  0  0  0  0
 31 32  1  0  0  0  0
 31 53  1  0  0  0  0
 31 54  1  0  0  0  0
 32 55  1  0  0  0  0
 32 56  1  0  0  0  0
 33 57  1  0  0  0  0
M  END
