REMARK  Name = 
REMARK  4 active torsions:
REMARK  status: ('A' for Active; 'I' for Inactive)
REMARK    1  A    between atoms: C_1  and  C_2
REMARK    2  A    between atoms: C_6  and  N_7
REMARK    3  A    between atoms: C_14  and  C_16
REMARK    4  A    between atoms: N_27  and  C_28
REMARK                            x       y       z     vdW  Elec       q    Type
REMARK                         _______ _______ _______ _____ _____    ______ ____
ROOT
ATOM      1  N   UNL     1      -1.834   2.485   0.015  0.00  0.00    +0.000 N 
ATOM      2  C   UNL     1      -3.304   2.496   0.011  0.00  0.00    +0.000 C 
ATOM      3  O   UNL     1      -3.931   3.602   0.022  0.00  0.00    +0.000 OA
ATOM      4  N   UNL     1      -4.049   1.229  -0.005  0.00  0.00    +0.000 N 
ATOM      5  C   UNL     1      -5.332   0.786  -0.564  0.00  0.00    +0.000 C 
ATOM      6  C   UNL     1      -5.196  -0.545  -1.278  0.00  0.00    +0.000 C 
ATOM      7  N   UNL     1      -4.706  -1.571  -0.350  0.00  0.00    +0.000 N 
ATOM      8  C   UNL     1      -5.388  -2.834  -0.032  0.00  0.00    +0.000 C 
ATOM      9  O   UNL     1      -6.500  -3.112  -0.581  0.00  0.00    +0.000 OA
ATOM     10  C   UNL     1      -3.423  -1.128   0.209  0.00  0.00    +0.000 C 
ATOM     11  C   UNL     1      -3.559   0.203   0.924  0.00  0.00    +0.000 C 
ATOM     12  H   UNL     1      -1.317   3.364   0.026  0.00  0.00    +0.000 HD
ENDROOT
BRANCH   8  13
ATOM     13  C   UNL     1      -4.763  -3.809   0.953  0.00  0.00    +0.000 A 
ATOM     14  C   UNL     1      -4.551  -3.317   2.251  0.00  0.00    +0.000 A 
ATOM     15  N   UNL     1      -3.845  -4.063   3.179  0.00  0.00    +0.000 NA
ATOM     16  C   UNL     1      -3.351  -5.325   2.820  0.00  0.00    +0.000 A 
ATOM     17  C   UNL     1      -3.572  -5.812   1.506  0.00  0.00    +0.000 A 
ATOM     18  C   UNL     1      -4.289  -5.026   0.583  0.00  0.00    +0.000 A 
ATOM     19  C   UNL     1      -3.073  -7.072   1.144  0.00  0.00    +0.000 A 
ATOM     20  O   UNL     1      -3.263  -7.523  -0.029  0.00  0.00    +0.000 OA
ATOM     21  N   UNL     1      -2.372  -7.821   2.076  0.00  0.00    +0.000 N 
ATOM     22  C   UNL     1      -2.159  -7.327   3.376  0.00  0.00    +0.000 A 
ATOM     23  O   UNL     1      -1.514  -8.028   4.216  0.00  0.00    +0.000 OA
ATOM     24  N   UNL     1      -2.635  -6.111   3.744  0.00  0.00    +0.000 N 
ATOM     25  H   UNL     1      -2.008  -8.737   1.817  0.00  0.00    +0.000 HD
BRANCH  24  26
ATOM     26  C   UNL     1      -2.401  -5.612   5.107  0.00  0.00    +0.000 C 
ATOM     27  C   UNL     1      -2.708  -4.159   5.472  0.00  0.00    +0.000 C 
ATOM     28  C   UNL     1      -3.591  -5.285   6.012  0.00  0.00    +0.000 C 
ENDBRANCH  24  26
ENDBRANCH   8  13
BRANCH   1  34
ATOM     29  C   UNL     1       2.492   0.004  -0.014  0.00  0.00    +0.000 C 
ATOM     30  C   UNL     1       0.991  -0.005   0.013  0.00  0.00    +0.000 A 
ATOM     31  C   UNL     1       0.258  -1.197   0.006  0.00  0.00    +0.000 A 
ATOM     32  C   UNL     1      -1.108  -1.202   0.001  0.00  0.00    +0.000 A 
ATOM     33  C   UNL     1      -1.799   0.010  -0.013  0.00  0.00    +0.000 A 
ATOM     34  C   UNL     1      -1.109   1.206   0.002  0.00  0.00    +0.000 A 
ATOM     35  C   UNL     1       0.275   1.184   0.005  0.00  0.00    +0.000 A 
ENDBRANCH   1  34
TORSDOF 3
