REMARK  Name = 
REMARK  10 active torsions:
REMARK  status: ('A' for Active; 'I' for Inactive)
REMARK    1  A    between atoms: C_1  and  O_2
REMARK    2  A    between atoms: O_2  and  C_3
REMARK    3  A    between atoms: C_6  and  C_7
REMARK    4  A    between atoms: C_10  and  C_11
REMARK    5  A    between atoms: C_11  and  N_12
REMARK    6  A    between atoms: C_13  and  C_15
REMARK    7  A    between atoms: C_15  and  C_16
REMARK    8  A    between atoms: C_16  and  C_17
REMARK    9  A    between atoms: C_17  and  C_18
REMARK   10  A    between atoms: C_18  and  C_19
REMARK                            x       y       z     vdW  Elec       q    Type
REMARK                         _______ _______ _______ _____ _____    ______ ____
ROOT
ATOM      1  N   UNL     1       3.812   8.133  -6.611  0.00  0.00    +0.000 N 
ATOM      2  C   UNL     1       4.138   9.565  -6.690  0.00  0.00    +0.000 C 
ATOM      3  O   UNL     1       3.548  10.304  -7.540  0.00  0.00    +0.000 OA
ATOM      4  H   UNL     1       3.113   7.734  -7.237  0.00  0.00    +0.000 HD
ENDROOT
BRANCH   1   5
ATOM      5  C   UNL     1       4.493   7.278  -5.628  0.00  0.00    +0.000 C 
BRANCH   5   9
ATOM      6  C   UNL     1       2.250   5.320  -3.616  0.00  0.00    +0.000 A 
ATOM      7  N   UNL     1       1.832   6.490  -3.194  0.00  0.00    +0.000 NA
ATOM      8  N   UNL     1       2.632   7.351  -3.895  0.00  0.00    +0.000 N 
ATOM      9  C   UNL     1       3.466   6.667  -4.690  0.00  0.00    +0.000 A 
ATOM     10  N   UNL     1       3.249   5.365  -4.523  0.00  0.00    +0.000 NA
ATOM     11  H   UNL     1       2.597   8.368  -3.824  0.00  0.00    +0.000 HD
BRANCH   6  15
ATOM     12  C   UNL     1       0.878   1.627  -1.965  0.00  0.00    +0.000 A 
ATOM     13  C   UNL     1      -0.044   2.475  -2.556  0.00  0.00    +0.000 A 
ATOM     14  C   UNL     1       0.538   3.555  -3.260  0.00  0.00    +0.000 A 
ATOM     15  C   UNL     1       1.783   3.969  -3.101  0.00  0.00    +0.000 A 
ATOM     16  C   UNL     1       2.628   3.115  -2.449  0.00  0.00    +0.000 A 
ATOM     17  C   UNL     1       2.155   1.973  -1.849  0.00  0.00    +0.000 A 
BRANCH  12  19
ATOM     18  C   UNL     1       1.009   0.082  -0.056  0.00  0.00    +0.000 C 
ATOM     19  O   UNL     1       0.535   0.390  -1.359  0.00  0.00    +0.000 OA
ENDBRANCH  12  19
ENDBRANCH   6  15
ENDBRANCH   5   9
ENDBRANCH   1   5
BRANCH   2  20
ATOM     20  C   UNL     1       5.179  10.160  -5.757  0.00  0.00    +0.000 C 
BRANCH  20  21
ATOM     21  C   UNL     1       4.739   9.963  -4.316  0.00  0.00    +0.000 C 
BRANCH  21  22
ATOM     22  C   UNL     1       4.593   8.478  -4.029  0.00  0.00    +0.000 C 
BRANCH  22  23
ATOM     23  C   UNL     1       5.927   7.785  -4.251  0.00  0.00    +0.000 C 
BRANCH  23  24
ATOM     24  C   UNL     1       6.968   8.380  -3.317  0.00  0.00    +0.000 A 
ATOM     25  N   UNL     1       7.277   9.736  -3.393  0.00  0.00    +0.000 NA
ATOM     26  C   UNL     1       8.284  10.312  -2.490  0.00  0.00    +0.000 A 
ATOM     27  C   UNL     1       8.073  11.543  -1.890  0.00  0.00    +0.000 A 
ATOM     28  C   UNL     1       9.245  12.127  -1.353  0.00  0.00    +0.000 A 
ATOM     29  C   UNL     1      10.360  11.468  -1.096  0.00  0.00    +0.000 A 
ATOM     30  C   UNL     1      10.479  10.229  -1.663  0.00  0.00    +0.000 A 
ATOM     31  C   UNL     1       9.420   9.647  -2.317  0.00  0.00    +0.000 A 
ATOM     32  S   UNL     1       7.764   7.382  -2.171  0.00  0.00    +0.000 S 
ENDBRANCH  23  24
ENDBRANCH  22  23
ENDBRANCH  21  22
ENDBRANCH  20  21
ENDBRANCH   2  20
TORSDOF 9
