
 OpenBabel03132512093D

 61 64  0  0  0  0  0  0  0  0999 V2000
    1.0997   -0.0067   -0.0024 C   0  0  0  0  0  0  0  0  0  0  0  0
    0.5931    1.3065    0.5715 C   0  0  0  0  0  0  0  0  0  0  0  0
    1.0997    2.4601   -0.2787 C   0  0  0  0  0  0  0  0  0  0  0  0
   -0.9269    1.3065    0.5715 C   0  0  0  0  0  0  0  0  0  0  0  0
   -1.7296    0.2145    0.5711 C   0  0  0  0  0  0  0  0  0  0  0  0
   -3.0000    0.6860    0.5824 C   0  0  0  0  0  0  0  0  0  0  0  0
   -4.2701   -0.1490    0.5930 C   0  0  0  0  0  0  0  0  0  0  0  0
   -5.4057    0.4217    0.6031 O   0  0  0  0  0  0  0  0  0  0  0  0
   -4.1850   -1.6165    0.5914 N   0  0  0  0  0  0  0  0  0  0  0  0
   -2.8715   -2.2765    0.5796 C   0  0  0  0  0  0  0  0  0  0  0  0
   -2.6511   -3.3440   -0.2750 C   0  0  0  0  0  0  0  0  0  0  0  0
   -1.4710   -4.0713    0.0086 C   0  0  0  0  0  0  0  0  0  0  0  0
   -0.4729   -3.6209    0.7468 C   0  0  0  0  0  0  0  0  0  0  0  0
   -0.7341   -2.5222    1.5176 C   0  0  0  0  0  0  0  0  0  0  0  0
    0.2315   -2.0846    2.4623 O   0  0  0  0  0  0  0  0  0  0  0  0
   -0.0294   -0.9448    3.2681 C   0  0  0  0  0  0  0  0  0  0  0  0
   -0.2464    0.2670    2.3766 C   0  0  0  0  0  0  0  0  0  0  0  0
   -0.5715    0.2796    1.0610 C   0  0  0  0  0  0  0  0  0  0  0  0
   -0.5093    1.5770    0.6743 N   0  0  0  0  0  0  0  0  0  0  0  0
   -0.7718    2.0711   -0.6012 C   0  0  0  0  0  0  0  0  0  0  0  0
   -0.6635    3.4832   -0.8628 C   0  0  0  0  0  0  0  0  0  0  0  0
   -0.9350    3.9941   -2.1817 C   0  0  0  0  0  0  0  0  0  0  0  0
    0.0228    3.7067    1.7345 C   0  0  0  0  0  0  0  0  0  0  0  0
   -0.1579    2.2780    1.7176 C   0  0  0  0  0  0  0  0  0  0  0  0
    0.0023    1.4990    2.7281 N   0  0  0  0  0  0  0  0  0  0  0  0
   -1.9175   -1.8355    1.3912 C   0  0  0  0  0  0  0  0  0  0  0  0
   -2.9318    1.9893    0.5826 N   0  0  0  0  0  0  0  0  0  0  0  0
   -1.6999    2.3580    0.5719 N   0  0  0  0  0  0  0  0  0  0  0  0
   -1.2332    3.7519    0.5617 C   0  0  0  0  0  0  0  0  0  0  0  0
   -1.7607    4.4538   -0.6791 C   0  0  0  0  0  0  0  0  0  0  0  0
   -1.7429    4.4660    1.8030 C   0  0  0  0  0  0  0  0  0  0  0  0
    0.2865    3.7774    0.5507 C   0  0  0  0  0  0  0  0  0  0  0  0
    0.7431   -0.1189   -1.0049 H   0  0  0  0  0  0  0  0  0  0  0  0
    0.7431   -0.8187    0.5961 H   0  0  0  0  0  0  0  0  0  0  0  0
    2.1697   -0.0067   -0.0024 H   0  0  0  0  0  0  0  0  0  0  0  0
    0.9497    1.4188    1.5741 H   0  0  0  0  0  0  0  0  0  0  0  0
    0.7431    2.3478   -1.2812 H   0  0  0  0  0  0  0  0  0  0  0  0
    0.7431    3.3844    0.1253 H   0  0  0  0  0  0  0  0  0  0  0  0
    2.1697    2.4601   -0.2787 H   0  0  0  0  0  0  0  0  0  0  0  0
   -1.4228   -0.8106    0.5635 H   0  0  0  0  0  0  0  0  0  0  0  0
   -5.0372   -2.1768    0.5985 H   0  0  0  0  0  0  0  0  0  0  0  0
   -3.3133   -3.5958   -1.0769 H   0  0  0  0  0  0  0  0  0  0  0  0
   -1.3810   -5.0545   -0.4038 H   0  0  0  0  0  0  0  0  0  0  0  0
    0.4885   -4.0905    0.7419 H   0  0  0  0  0  0  0  0  0  0  0  0
   -0.9067   -1.1168    3.8559 H   0  0  0  0  0  0  0  0  0  0  0  0
    0.8042   -0.7670    3.9150 H   0  0  0  0  0  0  0  0  0  0  0  0
   -0.8256   -0.5627    0.4520 H   0  0  0  0  0  0  0  0  0  0  0  0
   -1.0538    1.4016   -1.3867 H   0  0  0  0  0  0  0  0  0  0  0  0
   -0.3815    4.1528   -0.0773 H   0  0  0  0  0  0  0  0  0  0  0  0
   -1.2170    3.3246   -2.9672 H   0  0  0  0  0  0  0  0  0  0  0  0
    0.3131    4.1985    2.6393 H   0  0  0  0  0  0  0  0  0  0  0  0
   -2.0717   -0.9373    1.9519 H   0  0  0  0  0  0  0  0  0  0  0  0
   -2.8306    4.4358   -0.6713 H   0  0  0  0  0  0  0  0  0  0  0  0
   -1.4211    5.4684   -0.6865 H   0  0  0  0  0  0  0  0  0  0  0  0
   -1.4019    3.9511   -1.5529 H   0  0  0  0  0  0  0  0  0  0  0  0
   -1.3716    3.9719    2.6764 H   0  0  0  0  0  0  0  0  0  0  0  0
   -1.4033    5.4806    1.7956 H   0  0  0  0  0  0  0  0  0  0  0  0
   -2.8127    4.4480    1.8107 H   0  0  0  0  0  0  0  0  0  0  0  0
    0.6579    3.2834    1.4241 H   0  0  0  0  0  0  0  0  0  0  0  0
    0.6453    3.2748   -0.3231 H   0  0  0  0  0  0  0  0  0  0  0  0
    0.6262    4.7920    0.5432 H   0  0  0  0  0  0  0  0  0  0  0  0
  1  2  1  0  0  0  0
  1 33  1  0  0  0  0
  1 34  1  0  0  0  0
  1 35  1  0  0  0  0
  2  3  1  0  0  0  0
  2  4  1  0  0  0  0
  2 36  1  0  0  0  0
  3 37  1  0  0  0  0
  3 38  1  0  0  0  0
  3 39  1  0  0  0  0
  4  5  2  0  0  0  0
  4 28  1  0  0  0  0
  5  6  1  0  0  0  0
  5 40  1  0  0  0  0
  6  7  1  0  0  0  0
  6 27  2  0  0  0  0
  7  8  2  0  0  0  0
  7  9  1  0  0  0  0
  9 10  1  0  0  0  0
  9 41  1  0  0  0  0
 10 11  1  0  0  0  0
 10 26  2  0  0  0  0
 11 12  2  0  0  0  0
 11 42  1  0  0  0  0
 12 13  1  0  0  0  0
 12 43  1  0  0  0  0
 13 14  2  0  0  0  0
 13 44  1  0  0  0  0
 14 15  1  0  0  0  0
 14 26  1  0  0  0  0
 15 16  1  0  0  0  0
 16 17  1  0  0  0  0
 16 45  1  0  0  0  0
 16 46  1  0  0  0  0
 17 18  2  0  0  0  0
 17 25  1  0  0  0  0
 18 19  1  0  0  0  0
 18 47  1  0  0  0  0
 19 20  1  0  0  0  0
 19 24  1  0  0  0  0
 20 21  2  0  0  0  0
 20 48  1  0  0  0  0
 21 22  1  0  0  0  0
 21 49  1  0  0  0  0
 22 23  2  0  0  0  0
 22 50  1  0  0  0  0
 23 24  1  0  0  0  0
 23 51  1  0  0  0  0
 24 25  2  0  0  0  0
 26 52  1  0  0  0  0
 27 28  1  0  0  0  0
 28 29  1  0  0  0  0
 29 30  1  0  0  0  0
 29 31  1  0  0  0  0
 29 32  1  0  0  0  0
 30 53  1  0  0  0  0
 30 54  1  0  0  0  0
 30 55  1  0  0  0  0
 31 56  1  0  0  0  0
 31 57  1  0  0  0  0
 31 58  1  0  0  0  0
 32 59  1  0  0  0  0
 32 60  1  0  0  0  0
 32 61  1  0  0  0  0
M  END
