REMARK  Name = 
REMARK  12 active torsions:
REMARK  status: ('A' for Active; 'I' for Inactive)
REMARK    1  A    between atoms: C_1  and  C_2
REMARK    2  A    between atoms: C_2  and  C_3
REMARK    3  A    between atoms: C_2  and  C_4
REMARK    4  A    between atoms: C_6  and  C_7
REMARK    5  A    between atoms: N_9  and  C_10
REMARK    6  A    between atoms: C_14  and  O_15
REMARK    7  A    between atoms: O_15  and  C_16
REMARK    8  A    between atoms: C_16  and  C_17
REMARK    9  A    between atoms: N_28  and  C_29
REMARK   10  A    between atoms: C_29  and  C_30
REMARK   11  A    between atoms: C_29  and  C_31
REMARK   12  A    between atoms: C_29  and  C_32
REMARK                            x       y       z     vdW  Elec       q    Type
REMARK                         _______ _______ _______ _____ _____    ______ ____
ROOT
ATOM      1  C   UNL     1      -2.872  -2.276   0.580  0.00  0.00    +0.000 A 
ATOM      2  C   UNL     1      -2.651  -3.344  -0.275  0.00  0.00    +0.000 A 
ATOM      3  C   UNL     1      -1.471  -4.071   0.009  0.00  0.00    +0.000 A 
ATOM      4  C   UNL     1      -0.473  -3.621   0.747  0.00  0.00    +0.000 A 
ATOM      5  C   UNL     1      -0.734  -2.522   1.518  0.00  0.00    +0.000 A 
ATOM      6  C   UNL     1      -1.917  -1.835   1.391  0.00  0.00    +0.000 A 
ENDROOT
BRANCH   1   9
ATOM      7  C   UNL     1      -4.270  -0.149   0.593  0.00  0.00    +0.000 C 
ATOM      8  O   UNL     1      -5.406   0.422   0.603  0.00  0.00    +0.000 OA
ATOM      9  N   UNL     1      -4.185  -1.617   0.591  0.00  0.00    +0.000 N 
ATOM     10  H   UNL     1      -5.037  -2.177   0.599  0.00  0.00    +0.000 HD
BRANCH   7  13
ATOM     11  C   UNL     1      -0.927   1.306   0.572  0.00  0.00    +0.000 A 
ATOM     12  C   UNL     1      -1.730   0.214   0.571  0.00  0.00    +0.000 A 
ATOM     13  C   UNL     1      -3.000   0.686   0.582  0.00  0.00    +0.000 A 
ATOM     14  N   UNL     1      -2.932   1.989   0.583  0.00  0.00    +0.000 NA
ATOM     15  N   UNL     1      -1.700   2.358   0.572  0.00  0.00    +0.000 N 
BRANCH  15  16
ATOM     16  C   UNL     1      -1.233   3.752   0.562  0.00  0.00    +0.000 C 
ATOM     17  C   UNL     1      -1.761   4.454  -0.679  0.00  0.00    +0.000 C 
ATOM     18  C   UNL     1      -1.743   4.466   1.803  0.00  0.00    +0.000 C 
ATOM     19  C   UNL     1       0.286   3.777   0.551  0.00  0.00    +0.000 C 
ENDBRANCH  15  16
BRANCH  11  21
ATOM     20  C   UNL     1       1.100  -0.007  -0.002  0.00  0.00    +0.000 C 
ATOM     21  C   UNL     1       0.593   1.306   0.572  0.00  0.00    +0.000 C 
ATOM     22  C   UNL     1       1.100   2.460  -0.279  0.00  0.00    +0.000 C 
ENDBRANCH  11  21
ENDBRANCH   7  13
ENDBRANCH   1   9
BRANCH   5  23
ATOM     23  O   UNL     1       0.232  -2.085   2.462  0.00  0.00    +0.000 OA
BRANCH  23  24
ATOM     24  C   UNL     1      -0.029  -0.945   3.268  0.00  0.00    +0.000 C 
BRANCH  24  25
ATOM     25  C   UNL     1      -0.246   0.267   2.377  0.00  0.00    +0.000 A 
ATOM     26  C   UNL     1      -0.572   0.280   1.061  0.00  0.00    +0.000 A 
ATOM     27  N   UNL     1      -0.509   1.577   0.674  0.00  0.00    +0.000 N 
ATOM     28  C   UNL     1      -0.772   2.071  -0.601  0.00  0.00    +0.000 A 
ATOM     29  C   UNL     1      -0.663   3.483  -0.863  0.00  0.00    +0.000 A 
ATOM     30  C   UNL     1      -0.935   3.994  -2.182  0.00  0.00    +0.000 A 
ATOM     31  C   UNL     1       0.023   3.707   1.734  0.00  0.00    +0.000 A 
ATOM     32  C   UNL     1      -0.158   2.278   1.718  0.00  0.00    +0.000 A 
ATOM     33  N   UNL     1       0.002   1.499   2.728  0.00  0.00    +0.000 NA
ENDBRANCH  24  25
ENDBRANCH  23  24
ENDBRANCH   5  23
TORSDOF 7
