
 OpenBabel03132514253D

 53 56  0  0  0  0  0  0  0  0999 V2000
    1.0230    0.0838   -0.0494 C   0  0  0  0  0  0  0  0  0  0  0  0
    0.5496   -0.6824    1.0484 O   0  0  0  0  0  0  0  0  0  0  0  0
    0.8927   -2.0561    1.1559 C   0  0  0  0  0  0  0  0  0  0  0  0
   -0.0822   -2.9868    1.4753 C   0  0  0  0  0  0  0  0  0  0  0  0
    0.4315   -4.2579    1.8255 C   0  0  0  0  0  0  0  0  0  0  0  0
    1.6529   -4.6750    1.5459 C   0  0  0  0  0  0  0  0  0  0  0  0
    2.0384   -6.1426    1.6366 C   0  0  0  0  0  0  0  0  0  0  0  0
    1.4444   -7.0659    0.9191 N   0  0  0  0  0  0  0  0  0  0  0  0
    2.0908   -8.2035    1.3215 N   0  0  0  0  0  0  0  0  0  0  0  0
    3.0165   -7.9086    2.2446 C   0  0  0  0  0  0  0  0  0  0  0  0
    3.9258   -8.9113    2.9360 C   0  0  0  0  0  0  0  0  0  0  0  0
    3.1089   -9.8930    3.6638 N   0  0  0  0  0  0  0  0  0  0  0  0
    3.2026  -11.3210    3.3275 C   0  0  0  0  0  0  0  0  0  0  0  0
    2.4964  -12.1697    3.9568 O   0  0  0  0  0  0  0  0  0  0  0  0
    4.1443  -11.7824    2.2272 C   0  0  0  0  0  0  0  0  0  0  0  0
    3.7535  -11.1211    0.9155 C   0  0  0  0  0  0  0  0  0  0  0  0
    3.8466   -9.6110    1.0619 C   0  0  0  0  0  0  0  0  0  0  0  0
    5.2722   -9.2236    1.4196 C   0  0  0  0  0  0  0  0  0  0  0  0
    6.2139   -9.6850    0.3192 C   0  0  0  0  0  0  0  0  0  0  0  0
    6.3027  -11.0380    0.0006 N   0  0  0  0  0  0  0  0  0  0  0  0
    7.2134  -11.4842   -1.0636 C   0  0  0  0  0  0  0  0  0  0  0  0
    6.7277  -12.3633   -2.0175 C   0  0  0  0  0  0  0  0  0  0  0  0
    7.7288  -12.9141   -2.8520 C   0  0  0  0  0  0  0  0  0  0  0  0
    8.9424  -12.4139   -2.9962 C   0  0  0  0  0  0  0  0  0  0  0  0
    9.3383  -11.4991   -2.0603 C   0  0  0  0  0  0  0  0  0  0  0  0
    8.4524  -11.0112   -1.1301 C   0  0  0  0  0  0  0  0  0  0  0  0
    7.1669   -8.5397   -0.5299 S   0  0  0  0  0  0  0  0  0  0  0  0
    3.0100   -6.5957    2.4573 N   0  0  0  0  0  0  0  0  0  0  0  0
    2.5521   -3.7159    1.1705 C   0  0  0  0  0  0  0  0  0  0  0  0
    2.1498   -2.4231    0.9364 C   0  0  0  0  0  0  0  0  0  0  0  0
    0.6663    1.0889    0.0370 H   0  0  0  0  0  0  0  0  0  0  0  0
    0.6663   -0.3439   -0.9631 H   0  0  0  0  0  0  0  0  0  0  0  0
    2.0930    0.0838   -0.0494 H   0  0  0  0  0  0  0  0  0  0  0  0
   -1.1287   -2.7648    1.4587 H   0  0  0  0  0  0  0  0  0  0  0  0
   -0.2146   -4.9276    2.3537 H   0  0  0  0  0  0  0  0  0  0  0  0
    1.8960   -9.1407    0.9694 H   0  0  0  0  0  0  0  0  0  0  0  0
    4.5220   -9.4157    2.2045 H   0  0  0  0  0  0  0  0  0  0  0  0
    4.5644   -8.3982    3.6244 H   0  0  0  0  0  0  0  0  0  0  0  0
    2.4770   -9.5834    4.4022 H   0  0  0  0  0  0  0  0  0  0  0  0
    5.1478  -11.5097    2.4789 H   0  0  0  0  0  0  0  0  0  0  0  0
    4.0787  -12.8454    2.1241 H   0  0  0  0  0  0  0  0  0  0  0  0
    4.4163  -11.4459    0.1409 H   0  0  0  0  0  0  0  0  0  0  0  0
    2.7499  -11.3938    0.6638 H   0  0  0  0  0  0  0  0  0  0  0  0
    3.5715   -9.1455    0.1386 H   0  0  0  0  0  0  0  0  0  0  0  0
    3.1837   -9.2862    1.8365 H   0  0  0  0  0  0  0  0  0  0  0  0
    5.3378   -8.1606    1.5227 H   0  0  0  0  0  0  0  0  0  0  0  0
    5.5474   -9.6891    2.3429 H   0  0  0  0  0  0  0  0  0  0  0  0
    5.6896  -12.6041   -2.1144 H   0  0  0  0  0  0  0  0  0  0  0  0
    7.4856  -13.7975   -3.4047 H   0  0  0  0  0  0  0  0  0  0  0  0
    9.5816  -12.7086   -3.8021 H   0  0  0  0  0  0  0  0  0  0  0  0
   10.3525  -11.1583   -2.0520 H   0  0  0  0  0  0  0  0  0  0  0  0
    3.5839   -3.9757    1.0574 H   0  0  0  0  0  0  0  0  0  0  0  0
    2.8560   -1.7055    0.5739 H   0  0  0  0  0  0  0  0  0  0  0  0
  1  2  1  0  0  0  0
  1 31  1  0  0  0  0
  1 32  1  0  0  0  0
  1 33  1  0  0  0  0
  2  3  1  0  0  0  0
  3  4  1  0  0  0  0
  3 30  2  0  0  0  0
  4  5  2  0  0  0  0
  4 34  1  0  0  0  0
  5  6  1  0  0  0  0
  5 35  1  0  0  0  0
  6  7  1  0  0  0  0
  6 29  2  0  0  0  0
  7  8  2  0  0  0  0
  7 28  1  0  0  0  0
  8  9  1  0  0  0  0
  9 10  1  0  0  0  0
  9 36  1  0  0  0  0
 10 11  1  0  0  0  0
 10 28  2  0  0  0  0
 11 12  1  0  0  0  0
 11 37  1  0  0  0  0
 11 38  1  0  0  0  0
 12 13  1  0  0  0  0
 12 39  1  0  0  0  0
 13 14  2  0  0  0  0
 13 15  1  0  0  0  0
 15 16  1  0  0  0  0
 15 40  1  0  0  0  0
 15 41  1  0  0  0  0
 16 17  1  0  0  0  0
 16 42  1  0  0  0  0
 16 43  1  0  0  0  0
 17 18  1  0  0  0  0
 17 44  1  0  0  0  0
 17 45  1  0  0  0  0
 18 19  1  0  0  0  0
 18 46  1  0  0  0  0
 18 47  1  0  0  0  0
 19 20  2  0  0  0  0
 19 27  1  0  0  0  0
 20 21  1  0  0  0  0
 21 22  1  0  0  0  0
 21 26  2  0  0  0  0
 22 23  2  0  0  0  0
 22 48  1  0  0  0  0
 23 24  1  0  0  0  0
 23 49  1  0  0  0  0
 24 25  2  0  0  0  0
 24 50  1  0  0  0  0
 25 26  1  0  0  0  0
 25 51  1  0  0  0  0
 26 27  1  0  0  0  0
 29 30  1  0  0  0  0
 29 52  1  0  0  0  0
 30 53  1  0  0  0  0
M  END
