
 OpenBabel03132512093D

 53 56  0  0  0  0  0  0  0  0999 V2000
    1.0086    0.0823   -0.0562 C   0  0  0  0  0  0  0  0  0  0  0  0
    0.5352    0.3900   -1.3591 O   0  0  0  0  0  0  0  0  0  0  0  0
    0.8783    1.6275   -1.9652 C   0  0  0  0  0  0  0  0  0  0  0  0
   -0.0443    2.4749   -2.5564 C   0  0  0  0  0  0  0  0  0  0  0  0
    0.5383    3.5555   -3.2598 C   0  0  0  0  0  0  0  0  0  0  0  0
    1.7827    3.9685   -3.1013 C   0  0  0  0  0  0  0  0  0  0  0  0
    2.2496    5.3202   -3.6162 C   0  0  0  0  0  0  0  0  0  0  0  0
    1.8324    6.4897   -3.1936 N   0  0  0  0  0  0  0  0  0  0  0  0
    2.6317    7.3514   -3.8953 N   0  0  0  0  0  0  0  0  0  0  0  0
    3.4660    6.6667   -4.6898 C   0  0  0  0  0  0  0  0  0  0  0  0
    4.4933    7.2781   -5.6285 C   0  0  0  0  0  0  0  0  0  0  0  0
    3.8118    8.1334   -6.6107 N   0  0  0  0  0  0  0  0  0  0  0  0
    4.1376    9.5647   -6.6904 C   0  0  0  0  0  0  0  0  0  0  0  0
    3.5484   10.3041   -7.5397 O   0  0  0  0  0  0  0  0  0  0  0  0
    5.1792   10.1601   -5.7572 C   0  0  0  0  0  0  0  0  0  0  0  0
    4.7394    9.9634   -4.3156 C   0  0  0  0  0  0  0  0  0  0  0  0
    4.5925    8.4779   -4.0289 C   0  0  0  0  0  0  0  0  0  0  0  0
    5.9269    7.7847   -4.2507 C   0  0  0  0  0  0  0  0  0  0  0  0
    6.9685    8.3801   -3.3175 C   0  0  0  0  0  0  0  0  0  0  0  0
    7.2772    9.7362   -3.3930 N   0  0  0  0  0  0  0  0  0  0  0  0
    8.2845   10.3121   -2.4905 C   0  0  0  0  0  0  0  0  0  0  0  0
    8.0735   11.5425   -1.8904 C   0  0  0  0  0  0  0  0  0  0  0  0
    9.2449   12.1265   -1.3528 C   0  0  0  0  0  0  0  0  0  0  0  0
   10.3602   11.4676   -1.0958 C   0  0  0  0  0  0  0  0  0  0  0  0
   10.4790   10.2290   -1.6625 C   0  0  0  0  0  0  0  0  0  0  0  0
    9.4204    9.6467   -2.3169 C   0  0  0  0  0  0  0  0  0  0  0  0
    7.7636    7.3823   -2.1715 S   0  0  0  0  0  0  0  0  0  0  0  0
    3.2487    5.3651   -4.5232 N   0  0  0  0  0  0  0  0  0  0  0  0
    2.6283    3.1147   -2.4492 C   0  0  0  0  0  0  0  0  0  0  0  0
    2.1552    1.9728   -1.8490 C   0  0  0  0  0  0  0  0  0  0  0  0
    0.6519   -0.8839    0.2339 H   0  0  0  0  0  0  0  0  0  0  0  0
    0.6519    0.8166    0.6356 H   0  0  0  0  0  0  0  0  0  0  0  0
    2.0786    0.0823   -0.0562 H   0  0  0  0  0  0  0  0  0  0  0  0
   -1.1016    2.3258   -2.4874 H   0  0  0  0  0  0  0  0  0  0  0  0
   -0.0717    4.0742   -3.9695 H   0  0  0  0  0  0  0  0  0  0  0  0
    2.5973    8.3683   -3.8238 H   0  0  0  0  0  0  0  0  0  0  0  0
    5.1869    7.8658   -5.0641 H   0  0  0  0  0  0  0  0  0  0  0  0
    5.0191    6.4982   -6.1386 H   0  0  0  0  0  0  0  0  0  0  0  0
    3.1128    7.7338   -7.2369 H   0  0  0  0  0  0  0  0  0  0  0  0
    6.1185    9.6721   -5.9133 H   0  0  0  0  0  0  0  0  0  0  0  0
    5.2827   11.2058   -5.9590 H   0  0  0  0  0  0  0  0  0  0  0  0
    5.4727   10.3826   -3.6587 H   0  0  0  0  0  0  0  0  0  0  0  0
    3.8001   10.4514   -4.1595 H   0  0  0  0  0  0  0  0  0  0  0  0
    4.2829    8.3394   -3.0141 H   0  0  0  0  0  0  0  0  0  0  0  0
    3.8592    8.0587   -4.6859 H   0  0  0  0  0  0  0  0  0  0  0  0
    5.8234    6.7390   -4.0489 H   0  0  0  0  0  0  0  0  0  0  0  0
    6.2364    7.9231   -5.2655 H   0  0  0  0  0  0  0  0  0  0  0  0
    7.1120   12.0090   -1.8380 H   0  0  0  0  0  0  0  0  0  0  0  0
    9.2257   13.1749   -1.1397 H   0  0  0  0  0  0  0  0  0  0  0  0
   11.1294   11.8808   -0.4774 H   0  0  0  0  0  0  0  0  0  0  0  0
   11.4098    9.7055   -1.5954 H   0  0  0  0  0  0  0  0  0  0  0  0
    3.6737    3.3389   -2.4056 H   0  0  0  0  0  0  0  0  0  0  0  0
    2.8217    1.3563   -1.2828 H   0  0  0  0  0  0  0  0  0  0  0  0
  1  2  1  0  0  0  0
  1 31  1  0  0  0  0
  1 32  1  0  0  0  0
  1 33  1  0  0  0  0
  2  3  1  0  0  0  0
  3  4  1  0  0  0  0
  3 30  2  0  0  0  0
  4  5  2  0  0  0  0
  4 34  1  0  0  0  0
  5  6  1  0  0  0  0
  5 35  1  0  0  0  0
  6  7  1  0  0  0  0
  6 29  2  0  0  0  0
  7  8  2  0  0  0  0
  7 28  1  0  0  0  0
  8  9  1  0  0  0  0
  9 10  1  0  0  0  0
  9 36  1  0  0  0  0
 10 11  1  0  0  0  0
 10 28  2  0  0  0  0
 11 12  1  0  0  0  0
 11 37  1  0  0  0  0
 11 38  1  0  0  0  0
 12 13  1  0  0  0  0
 12 39  1  0  0  0  0
 13 14  2  0  0  0  0
 13 15  1  0  0  0  0
 15 16  1  0  0  0  0
 15 40  1  0  0  0  0
 15 41  1  0  0  0  0
 16 17  1  0  0  0  0
 16 42  1  0  0  0  0
 16 43  1  0  0  0  0
 17 18  1  0  0  0  0
 17 44  1  0  0  0  0
 17 45  1  0  0  0  0
 18 19  1  0  0  0  0
 18 46  1  0  0  0  0
 18 47  1  0  0  0  0
 19 20  2  0  0  0  0
 19 27  1  0  0  0  0
 20 21  1  0  0  0  0
 21 22  1  0  0  0  0
 21 26  2  0  0  0  0
 22 23  2  0  0  0  0
 22 48  1  0  0  0  0
 23 24  1  0  0  0  0
 23 49  1  0  0  0  0
 24 25  2  0  0  0  0
 24 50  1  0  0  0  0
 25 26  1  0  0  0  0
 25 51  1  0  0  0  0
 26 27  1  0  0  0  0
 29 30  1  0  0  0  0
 29 52  1  0  0  0  0
 30 53  1  0  0  0  0
M  END
