REMARK  Name = 
REMARK  17 active torsions:
REMARK  status: ('A' for Active; 'I' for Inactive)
REMARK    1  A    between atoms: C_1  and  C_2
REMARK    2  A    between atoms: C_2  and  C_3
REMARK    3  A    between atoms: C_2  and  C_12
REMARK    4  A    between atoms: C_3  and  C_4
REMARK    5  A    between atoms: C_4  and  O_5
REMARK    6  A    between atoms: C_4  and  C_6
REMARK    7  A    between atoms: C_6  and  O_7
REMARK    8  A    between atoms: C_6  and  C_8
REMARK    9  A    between atoms: C_8  and  C_9
REMARK   10  A    between atoms: C_8  and  C_10
REMARK   11  A    between atoms: C_8  and  O_11
REMARK   12  A    between atoms: C_15  and  O_16
REMARK   13  A    between atoms: C_18  and  C_19
REMARK   14  A    between atoms: C_24  and  C_25
REMARK   15  A    between atoms: C_24  and  C_26
REMARK   16  A    between atoms: C_30  and  C_31
REMARK   17  A    between atoms: C_32  and  C_33
REMARK                            x       y       z     vdW  Elec       q    Type
REMARK                         _______ _______ _______ _____ _____    ______ ____
ROOT
ATOM      1  C   UNL     1      -1.005   1.310   0.325  0.00  0.00    +0.000 C 
ATOM      2  C   UNL     1      -1.659   2.315   0.852  0.00  0.00    +0.000 C 
ATOM      3  C   UNL     1      -0.906   3.470   1.459  0.00  0.00    +0.000 C 
ATOM      4  C   UNL     1      -1.544   3.847   2.798  0.00  0.00    +0.000 C 
ATOM      5  C   UNL     1      -0.903   3.025   3.918  0.00  0.00    +0.000 C 
ATOM      6  C   UNL     1      -1.539   1.659   3.965  0.00  0.00    +0.000 C 
ATOM      7  C   UNL     1      -1.507   1.209   2.513  0.00  0.00    +0.000 C 
ATOM      8  C   UNL     1      -2.902   1.831   4.613  0.00  0.00    +0.000 C 
ATOM      9  C   UNL     1      -2.729   2.394   6.015  0.00  0.00    +0.000 C 
ATOM     10  C   UNL     1      -2.032   3.742   5.937  0.00  0.00    +0.000 C 
ATOM     11  O   UNL     1      -0.871   3.828   5.426  0.00  0.00    +0.000 OA
ATOM     12  C   UNL     1       0.435   0.455   3.964  0.00  0.00    +0.000 C 
ATOM     13  C   UNL     1       1.245   1.735   4.082  0.00  0.00    +0.000 C 
ATOM     14  C   UNL     1       1.169  -0.676   4.666  0.00  0.00    +0.000 C 
ATOM     15  C   UNL     1      -0.926   0.655   4.612  0.00  0.00    +0.000 C 
ATOM     16  C   UNL     1      -1.599  -0.631   4.622  0.00  0.00    +0.000 C 
ATOM     17  C   UNL     1      -0.728  -1.670   3.913  0.00  0.00    +0.000 C 
ATOM     18  C   UNL     1      -1.229  -1.847   2.532  0.00  0.00    +0.000 C 
ATOM     19  C   UNL     1      -1.878  -3.160   2.126  0.00  0.00    +0.000 C 
ATOM     20  C   UNL     1      -0.655  -1.044   1.589  0.00  0.00    +0.000 C 
ATOM     21  C   UNL     1       0.685  -1.405   2.209  0.00  0.00    +0.000 C 
ATOM     22  C   UNL     1      -1.112  -1.161   0.159  0.00  0.00    +0.000 C 
ATOM     23  C   UNL     1      -1.758   0.154  -0.281  0.00  0.00    +0.000 C 
ENDROOT
BRANCH   1  25
ATOM     24  C   UNL     1       1.022  -0.092   0.031  0.00  0.00    +0.000 C 
ATOM     25  C   UNL     1       0.515   1.310   0.325  0.00  0.00    +0.000 C 
BRANCH  25  26
ATOM     26  C   UNL     1       1.022   2.266  -0.743  0.00  0.00    +0.000 C 
BRANCH  26  27
ATOM     27  C   UNL     1       0.515   1.819  -2.104  0.00  0.00    +0.000 C 
BRANCH  27  28
ATOM     28  O   UNL     1      -0.905   1.819  -2.104  0.00  0.00    +0.000 OA
ATOM     29  H   UNL     1      -1.238   1.190  -1.402  0.00  0.00    +0.000 HD
ENDBRANCH  27  28
BRANCH  27  30
ATOM     30  C   UNL     1       1.022   2.775  -3.172  0.00  0.00    +0.000 C 
BRANCH  30  31
ATOM     31  C   UNL     1       0.515   2.328  -4.534  0.00  0.00    +0.000 C 
ATOM     32  C   UNL     1      -1.005   2.328  -4.534  0.00  0.00    +0.000 C 
ATOM     33  C   UNL     1       1.022   3.284  -5.601  0.00  0.00    +0.000 C 
BRANCH  31  34
ATOM     34  O   UNL     1       0.988   1.018  -4.808  0.00  0.00    +0.000 OA
ATOM     35  H   UNL     1       0.655   0.724  -5.704  0.00  0.00    +0.000 HD
ENDBRANCH  31  34
ENDBRANCH  30  31
BRANCH  30  36
ATOM     36  O   UNL     1       2.442   2.775  -3.172  0.00  0.00    +0.000 OA
ATOM     37  H   UNL     1       2.775   3.069  -2.276  0.00  0.00    +0.000 HD
ENDBRANCH  30  36
ENDBRANCH  27  30
ENDBRANCH  26  27
ENDBRANCH  25  26
ENDBRANCH   1  25
BRANCH   4  38
ATOM     38  O   UNL     1      -2.938   3.576   2.751  0.00  0.00    +0.000 OA
ATOM     39  H   UNL     1      -3.082   2.603   2.574  0.00  0.00    +0.000 HD
ENDBRANCH   4  38
TORSDOF 9
