REMARK  Name = 
REMARK  17 active torsions:
REMARK  status: ('A' for Active; 'I' for Inactive)
REMARK    1  A    between atoms: C_1  and  C_2
REMARK    2  A    between atoms: C_2  and  C_3
REMARK    3  A    between atoms: C_2  and  C_12
REMARK    4  A    between atoms: C_3  and  C_4
REMARK    5  A    between atoms: C_4  and  O_5
REMARK    6  A    between atoms: C_4  and  C_6
REMARK    7  A    between atoms: C_6  and  O_7
REMARK    8  A    between atoms: C_6  and  C_8
REMARK    9  A    between atoms: C_8  and  C_9
REMARK   10  A    between atoms: C_8  and  C_10
REMARK   11  A    between atoms: C_8  and  O_11
REMARK   12  A    between atoms: C_15  and  O_16
REMARK   13  A    between atoms: C_18  and  C_19
REMARK   14  A    between atoms: C_24  and  C_25
REMARK   15  A    between atoms: C_24  and  C_26
REMARK   16  A    between atoms: C_30  and  C_31
REMARK   17  A    between atoms: C_32  and  C_33
REMARK                            x       y       z     vdW  Elec       q    Type
REMARK                         _______ _______ _______ _____ _____    ______ ____
ROOT
ATOM      1  C   UNL     1      -1.053  -1.528  -0.012  0.00  0.00    +0.000 C 
ATOM      2  C   UNL     1      -1.707  -0.450   0.342  0.00  0.00    +0.000 C 
ATOM      3  C   UNL     1      -0.954   0.789   0.752  0.00  0.00    +0.000 C 
ATOM      4  C   UNL     1      -1.592   1.380   2.011  0.00  0.00    +0.000 C 
ATOM      5  C   UNL     1      -0.951   0.753   3.251  0.00  0.00    +0.000 C 
ATOM      6  C   UNL     1      -1.587  -0.587   3.521  0.00  0.00    +0.000 C 
ATOM      7  C   UNL     1      -1.555  -1.268   2.163  0.00  0.00    +0.000 C 
ATOM      8  C   UNL     1      -2.950  -0.310   4.132  0.00  0.00    +0.000 C 
ATOM      9  C   UNL     1      -2.777   0.475   5.422  0.00  0.00    +0.000 C 
ATOM     10  C   UNL     1      -2.079   1.792   5.124  0.00  0.00    +0.000 C 
ATOM     11  O   UNL     1      -0.919   1.793   4.606  0.00  0.00    +0.000 OA
ATOM     12  C   UNL     1       0.387  -1.774   3.718  0.00  0.00    +0.000 C 
ATOM     13  C   UNL     1       1.197  -0.492   3.624  0.00  0.00    +0.000 C 
ATOM     14  C   UNL     1       1.121  -2.775   4.596  0.00  0.00    +0.000 C 
ATOM     15  C   UNL     1      -0.974  -1.470   4.324  0.00  0.00    +0.000 C 
ATOM     16  C   UNL     1      -1.647  -2.737   4.545  0.00  0.00    +0.000 C 
ATOM     17  C   UNL     1      -0.776  -3.879   4.016  0.00  0.00    +0.000 C 
ATOM     18  C   UNL     1      -1.277  -4.279   2.683  0.00  0.00    +0.000 C 
ATOM     19  C   UNL     1      -1.926  -5.641   2.498  0.00  0.00    +0.000 C 
ATOM     20  C   UNL     1      -0.703  -3.642   1.621  0.00  0.00    +0.000 C 
ATOM     21  C   UNL     1       0.637  -3.897   2.292  0.00  0.00    +0.000 C 
ATOM     22  C   UNL     1      -1.160  -3.993   0.229  0.00  0.00    +0.000 C 
ATOM     23  C   UNL     1      -1.806  -2.768  -0.420  0.00  0.00    +0.000 C 
ENDROOT
BRANCH   1  25
ATOM     24  C   UNL     1       0.974  -0.095   0.017  0.00  0.00    +0.000 C 
ATOM     25  C   UNL     1       0.467  -1.528  -0.012  0.00  0.00    +0.000 C 
BRANCH  25  26
ATOM     26  C   UNL     1       0.974  -2.269   1.214  0.00  0.00    +0.000 C 
BRANCH  26  27
ATOM     27  C   UNL     1       0.467  -1.578   2.470  0.00  0.00    +0.000 C 
BRANCH  27  28
ATOM     28  O   UNL     1      -0.953  -1.578   2.470  0.00  0.00    +0.000 OA
ATOM     29  H   UNL     1      -1.286  -1.090   1.663  0.00  0.00    +0.000 HD
ENDBRANCH  27  28
BRANCH  27  30
ATOM     30  C   UNL     1       0.974  -2.319   3.696  0.00  0.00    +0.000 C 
BRANCH  30  31
ATOM     31  C   UNL     1       0.467  -1.628   4.951  0.00  0.00    +0.000 C 
ATOM     32  C   UNL     1      -1.053  -1.628   4.951  0.00  0.00    +0.000 C 
ATOM     33  C   UNL     1       0.974  -2.369   6.178  0.00  0.00    +0.000 C 
BRANCH  31  34
ATOM     34  O   UNL     1       0.940  -0.289   4.978  0.00  0.00    +0.000 OA
ATOM     35  H   UNL     1       0.607   0.166   5.804  0.00  0.00    +0.000 HD
ENDBRANCH  31  34
ENDBRANCH  30  31
BRANCH  30  36
ATOM     36  O   UNL     1       2.394  -2.319   3.696  0.00  0.00    +0.000 OA
ATOM     37  H   UNL     1       2.727  -2.774   2.870  0.00  0.00    +0.000 HD
ENDBRANCH  30  36
ENDBRANCH  27  30
ENDBRANCH  26  27
ENDBRANCH  25  26
ENDBRANCH   1  25
BRANCH   4  38
ATOM     38  O   UNL     1      -2.986   1.106   2.008  0.00  0.00    +0.000 OA
ATOM     39  H   UNL     1      -3.130   0.116   1.994  0.00  0.00    +0.000 HD
ENDBRANCH   4  38
TORSDOF 9
