
 OpenBabel03132512093D

 52 51  0  0  0  0  0  0  0  0999 V2000
    1.0581   -0.0594    0.0556 C   0  0  0  0  0  0  0  0  0  0  0  0
    0.5514   -0.3857    1.4511 C   0  0  0  0  0  0  0  0  0  0  0  0
    1.0581    0.6596    2.4314 C   0  0  0  0  0  0  0  0  0  0  0  0
    0.5514    2.0312    2.0163 C   0  0  0  0  0  0  0  0  0  0  0  0
   -0.9686    2.0312    2.0163 C   0  0  0  0  0  0  0  0  0  0  0  0
   -1.4753    1.7049    3.4117 C   0  0  0  0  0  0  0  0  0  0  0  0
   -2.2574    2.5971    4.0773 C   0  0  0  0  0  0  0  0  0  0  0  0
   -2.7640    2.2708    5.4727 C   0  0  0  0  0  0  0  0  0  0  0  0
   -2.2574    3.3161    6.4530 C   0  0  0  0  0  0  0  0  0  0  0  0
   -3.1414    4.0703    7.1603 C   0  0  0  0  0  0  0  0  0  0  0  0
   -2.6348    5.1157    8.1406 C   0  0  0  0  0  0  0  0  0  0  0  0
   -3.1414    6.4873    7.7255 C   0  0  0  0  0  0  0  0  0  0  0  0
   -4.6614    6.4873    7.7255 C   0  0  0  0  0  0  0  0  0  0  0  0
   -5.1681    6.1610    9.1209 C   0  0  0  0  0  0  0  0  0  0  0  0
   -4.6614    7.2063   10.1013 C   0  0  0  0  0  0  0  0  0  0  0  0
   -5.1681    8.5779    9.6861 C   0  0  0  0  0  0  0  0  0  0  0  0
   -6.6881    8.5779    9.6861 C   0  0  0  0  0  0  0  0  0  0  0  0
   -7.1948    8.2516   11.0816 C   0  0  0  0  0  0  0  0  0  0  0  0
   -7.9254    9.0851   11.7033 O   0  0  0  0  0  0  0  0  0  0  0  0
   -6.8517    7.0155   11.6904 O   0  0  0  0  0  0  0  0  0  0  0  0
    0.7014    0.9062   -0.2366 H   0  0  0  0  0  0  0  0  0  0  0  0
    0.7014   -0.7952   -0.6344 H   0  0  0  0  0  0  0  0  0  0  0  0
    2.1281   -0.0594    0.0556 H   0  0  0  0  0  0  0  0  0  0  0  0
   -0.5186   -0.3857    1.4511 H   0  0  0  0  0  0  0  0  0  0  0  0
    0.9081   -1.3513    1.7433 H   0  0  0  0  0  0  0  0  0  0  0  0
    0.7014    0.4299    3.4137 H   0  0  0  0  0  0  0  0  0  0  0  0
    2.1281    0.6596    2.4314 H   0  0  0  0  0  0  0  0  0  0  0  0
    0.9081    2.7671    2.7064 H   0  0  0  0  0  0  0  0  0  0  0  0
    0.9081    2.2609    1.0340 H   0  0  0  0  0  0  0  0  0  0  0  0
   -1.3253    2.9968    1.7240 H   0  0  0  0  0  0  0  0  0  0  0  0
   -1.3252    1.2954    1.3262 H   0  0  0  0  0  0  0  0  0  0  0  0
   -1.2168    0.7735    3.8705 H   0  0  0  0  0  0  0  0  0  0  0  0
   -2.5159    3.5285    3.6185 H   0  0  0  0  0  0  0  0  0  0  0  0
   -3.8340    2.2708    5.4727 H   0  0  0  0  0  0  0  0  0  0  0  0
   -2.4074    1.3052    5.7649 H   0  0  0  0  0  0  0  0  0  0  0  0
   -1.2054    3.4587    6.5867 H   0  0  0  0  0  0  0  0  0  0  0  0
   -4.1934    3.9277    7.0266 H   0  0  0  0  0  0  0  0  0  0  0  0
   -2.9914    4.8860    9.1229 H   0  0  0  0  0  0  0  0  0  0  0  0
   -1.5648    5.1157    8.1406 H   0  0  0  0  0  0  0  0  0  0  0  0
   -2.7848    7.2231    8.4156 H   0  0  0  0  0  0  0  0  0  0  0  0
   -2.7848    6.7170    6.7432 H   0  0  0  0  0  0  0  0  0  0  0  0
   -5.0181    7.4528    7.4333 H   0  0  0  0  0  0  0  0  0  0  0  0
   -5.0181    5.7514    7.0354 H   0  0  0  0  0  0  0  0  0  0  0  0
   -6.2381    6.1610    9.1209 H   0  0  0  0  0  0  0  0  0  0  0  0
   -4.8114    5.1954    9.4132 H   0  0  0  0  0  0  0  0  0  0  0  0
   -5.0181    6.9766   11.0836 H   0  0  0  0  0  0  0  0  0  0  0  0
   -3.5914    7.2063   10.1013 H   0  0  0  0  0  0  0  0  0  0  0  0
   -4.8114    9.3138   10.3762 H   0  0  0  0  0  0  0  0  0  0  0  0
   -4.8114    8.8076    8.7038 H   0  0  0  0  0  0  0  0  0  0  0  0
   -7.0448    9.5435    9.3939 H   0  0  0  0  0  0  0  0  0  0  0  0
   -7.0448    7.8421    8.9960 H   0  0  0  0  0  0  0  0  0  0  0  0
   -7.1851    6.8008   12.6085 H   0  0  0  0  0  0  0  0  0  0  0  0
  1  2  1  0  0  0  0
  1 21  1  0  0  0  0
  1 22  1  0  0  0  0
  1 23  1  0  0  0  0
  2  3  1  0  0  0  0
  2 24  1  0  0  0  0
  2 25  1  0  0  0  0
  3  4  1  0  0  0  0
  3 26  1  0  0  0  0
  3 27  1  0  0  0  0
  4  5  1  0  0  0  0
  4 28  1  0  0  0  0
  4 29  1  0  0  0  0
  5  6  1  0  0  0  0
  5 30  1  0  0  0  0
  5 31  1  0  0  0  0
  6  7  2  0  0  0  0
  6 32  1  0  0  0  0
  7  8  1  0  0  0  0
  7 33  1  0  0  0  0
  8  9  1  0  0  0  0
  8 34  1  0  0  0  0
  8 35  1  0  0  0  0
  9 10  2  0  0  0  0
  9 36  1  0  0  0  0
 10 11  1  0  0  0  0
 10 37  1  0  0  0  0
 11 12  1  0  0  0  0
 11 38  1  0  0  0  0
 11 39  1  0  0  0  0
 12 13  1  0  0  0  0
 12 40  1  0  0  0  0
 12 41  1  0  0  0  0
 13 14  1  0  0  0  0
 13 42  1  0  0  0  0
 13 43  1  0  0  0  0
 14 15  1  0  0  0  0
 14 44  1  0  0  0  0
 14 45  1  0  0  0  0
 15 16  1  0  0  0  0
 15 46  1  0  0  0  0
 15 47  1  0  0  0  0
 16 17  1  0  0  0  0
 16 48  1  0  0  0  0
 16 49  1  0  0  0  0
 17 18  1  0  0  0  0
 17 50  1  0  0  0  0
 17 51  1  0  0  0  0
 18 19  2  0  0  0  0
 18 20  1  0  0  0  0
 20 52  1  0  0  0  0
M  END
