
 OpenBabel03132512093D

 50 49  0  0  0  0  0  0  0  0999 V2000
    0.9450    0.0643   -0.0533 C   0  0  0  0  0  0  0  0  0  0  0  0
    0.4383    0.5460   -1.4030 C   0  0  0  0  0  0  0  0  0  0  0  0
    0.9450   -0.3820   -2.4950 C   0  0  0  0  0  0  0  0  0  0  0  0
    0.0609   -1.0515   -3.2829 C   0  0  0  0  0  0  0  0  0  0  0  0
    0.5676   -1.9795   -4.3750 C   0  0  0  0  0  0  0  0  0  0  0  0
    0.0609   -3.3892   -4.1173 C   0  0  0  0  0  0  0  0  0  0  0  0
   -0.7212   -4.0104   -5.0410 C   0  0  0  0  0  0  0  0  0  0  0  0
   -1.2279   -5.4201   -4.7834 C   0  0  0  0  0  0  0  0  0  0  0  0
   -2.7479   -5.4201   -4.7834 C   0  0  0  0  0  0  0  0  0  0  0  0
   -3.4281   -6.1830   -5.6811 C   0  0  0  0  0  0  0  0  0  0  0  0
   -4.9481   -6.1830   -5.6811 C   0  0  0  0  0  0  0  0  0  0  0  0
   -5.4547   -5.7012   -7.0308 C   0  0  0  0  0  0  0  0  0  0  0  0
   -4.9481   -6.6292   -8.1229 C   0  0  0  0  0  0  0  0  0  0  0  0
   -5.4547   -8.0389   -7.8652 C   0  0  0  0  0  0  0  0  0  0  0  0
   -6.9747   -8.0389   -7.8652 C   0  0  0  0  0  0  0  0  0  0  0  0
   -7.4814   -7.5572   -9.2149 C   0  0  0  0  0  0  0  0  0  0  0  0
   -6.9748   -8.4852  -10.3069 C   0  0  0  0  0  0  0  0  0  0  0  0
   -7.4814   -9.8949  -10.0493 C   0  0  0  0  0  0  0  0  0  0  0  0
   -8.2121  -10.4752  -10.9122 O   0  0  0  0  0  0  0  0  0  0  0  0
   -7.1384  -10.5636   -8.8444 O   0  0  0  0  0  0  0  0  0  0  0  0
    0.5883   -0.9281    0.1281 H   0  0  0  0  0  0  0  0  0  0  0  0
    0.5883    0.7175    0.7155 H   0  0  0  0  0  0  0  0  0  0  0  0
    2.0150    0.0643   -0.0533 H   0  0  0  0  0  0  0  0  0  0  0  0
   -0.6317    0.5460   -1.4030 H   0  0  0  0  0  0  0  0  0  0  0  0
    0.7950    1.5384   -1.5843 H   0  0  0  0  0  0  0  0  0  0  0  0
    1.9969   -0.5086   -2.6440 H   0  0  0  0  0  0  0  0  0  0  0  0
   -0.9911   -0.9249   -3.1339 H   0  0  0  0  0  0  0  0  0  0  0  0
    0.2109   -1.6404   -5.3251 H   0  0  0  0  0  0  0  0  0  0  0  0
    1.6376   -1.9795   -4.3750 H   0  0  0  0  0  0  0  0  0  0  0  0
    0.3194   -3.8931   -3.2095 H   0  0  0  0  0  0  0  0  0  0  0  0
   -0.9797   -3.5065   -5.9489 H   0  0  0  0  0  0  0  0  0  0  0  0
   -0.8712   -6.0733   -5.5521 H   0  0  0  0  0  0  0  0  0  0  0  0
   -0.8712   -5.7592   -3.8333 H   0  0  0  0  0  0  0  0  0  0  0  0
   -3.2829   -4.8200   -4.0772 H   0  0  0  0  0  0  0  0  0  0  0  0
   -2.8931   -6.7830   -6.3873 H   0  0  0  0  0  0  0  0  0  0  0  0
   -5.3047   -7.1753   -5.4998 H   0  0  0  0  0  0  0  0  0  0  0  0
   -5.3047   -5.5297   -4.9124 H   0  0  0  0  0  0  0  0  0  0  0  0
   -6.5247   -5.7012   -7.0308 H   0  0  0  0  0  0  0  0  0  0  0  0
   -5.0981   -4.7089   -7.2122 H   0  0  0  0  0  0  0  0  0  0  0  0
   -5.3047   -6.2901   -9.0730 H   0  0  0  0  0  0  0  0  0  0  0  0
   -3.8781   -6.6292   -8.1229 H   0  0  0  0  0  0  0  0  0  0  0  0
   -5.0981   -8.6922   -8.6340 H   0  0  0  0  0  0  0  0  0  0  0  0
   -5.0981   -8.3781   -6.9151 H   0  0  0  0  0  0  0  0  0  0  0  0
   -7.3314   -9.0313   -7.6839 H   0  0  0  0  0  0  0  0  0  0  0  0
   -7.3314   -7.3857   -7.0965 H   0  0  0  0  0  0  0  0  0  0  0  0
   -8.5514   -7.5572   -9.2149 H   0  0  0  0  0  0  0  0  0  0  0  0
   -7.1248   -6.5648   -9.3963 H   0  0  0  0  0  0  0  0  0  0  0  0
   -7.3314   -8.1461  -11.2570 H   0  0  0  0  0  0  0  0  0  0  0  0
   -5.9048   -8.4852  -10.3069 H   0  0  0  0  0  0  0  0  0  0  0  0
   -7.4717  -11.4910   -8.6749 H   0  0  0  0  0  0  0  0  0  0  0  0
  1  2  1  0  0  0  0
  1 21  1  0  0  0  0
  1 22  1  0  0  0  0
  1 23  1  0  0  0  0
  2  3  1  0  0  0  0
  2 24  1  0  0  0  0
  2 25  1  0  0  0  0
  3  4  2  0  0  0  0
  3 26  1  0  0  0  0
  4  5  1  0  0  0  0
  4 27  1  0  0  0  0
  5  6  1  0  0  0  0
  5 28  1  0  0  0  0
  5 29  1  0  0  0  0
  6  7  2  0  0  0  0
  6 30  1  0  0  0  0
  7  8  1  0  0  0  0
  7 31  1  0  0  0  0
  8  9  1  0  0  0  0
  8 32  1  0  0  0  0
  8 33  1  0  0  0  0
  9 10  2  0  0  0  0
  9 34  1  0  0  0  0
 10 11  1  0  0  0  0
 10 35  1  0  0  0  0
 11 12  1  0  0  0  0
 11 36  1  0  0  0  0
 11 37  1  0  0  0  0
 12 13  1  0  0  0  0
 12 38  1  0  0  0  0
 12 39  1  0  0  0  0
 13 14  1  0  0  0  0
 13 40  1  0  0  0  0
 13 41  1  0  0  0  0
 14 15  1  0  0  0  0
 14 42  1  0  0  0  0
 14 43  1  0  0  0  0
 15 16  1  0  0  0  0
 15 44  1  0  0  0  0
 15 45  1  0  0  0  0
 16 17  1  0  0  0  0
 16 46  1  0  0  0  0
 16 47  1  0  0  0  0
 17 18  1  0  0  0  0
 17 48  1  0  0  0  0
 17 49  1  0  0  0  0
 18 19  2  0  0  0  0
 18 20  1  0  0  0  0
 20 50  1  0  0  0  0
M  END
