REMARK  Name = 
REMARK  14 active torsions:
REMARK  status: ('A' for Active; 'I' for Inactive)
REMARK    1  A    between atoms: C_2  and  C_3
REMARK    2  A    between atoms: C_4  and  O_5
REMARK    3  A    between atoms: O_5  and  C_6
REMARK    4  A    between atoms: C_8  and  C_9
REMARK    5  A    between atoms: C_9  and  O_10
REMARK    6  A    between atoms: C_11  and  O_12
REMARK    7  A    between atoms: C_13  and  O_14
REMARK    8  A    between atoms: C_15  and  O_16
REMARK    9  A    between atoms: O_16  and  C_17
REMARK   10  A    between atoms: C_17  and  C_19
REMARK   11  A    between atoms: C_20  and  O_21
REMARK   12  A    between atoms: C_23  and  O_24
REMARK   13  A    between atoms: C_26  and  C_27
REMARK   14  A    between atoms: C_31  and  O_32
REMARK                            x       y       z     vdW  Elec       q    Type
REMARK                         _______ _______ _______ _____ _____    ______ ____
ROOT
ATOM      1  C   UNL     1      -2.536  -0.234   1.425  0.00  0.00    +0.000 C 
ATOM      2  O   UNL     1      -2.230   1.266   1.402  0.00  0.00    +0.000 OA
ATOM      3  C   UNL     1      -2.215   1.727   0.049  0.00  0.00    +0.000 C 
ATOM      4  C   UNL     1      -3.457   1.561  -0.637  0.00  0.00    +0.000 C 
ATOM      5  C   UNL     1      -3.812   0.074  -0.696  0.00  0.00    +0.000 C 
ATOM      6  C   UNL     1      -3.877  -0.484   0.729  0.00  0.00    +0.000 C 
ENDROOT
BRANCH   4   7
ATOM      7  O   UNL     1      -3.341   2.073  -1.957  0.00  0.00    +0.000 OA
ATOM      8  H   UNL     1      -2.622   1.578  -2.445  0.00  0.00    +0.000 HD
ENDBRANCH   4   7
BRANCH   5   9
ATOM      9  O   UNL     1      -2.823  -0.625  -1.438  0.00  0.00    +0.000 OA
ATOM     10  H   UNL     1      -1.933  -0.512  -0.995  0.00  0.00    +0.000 HD
ENDBRANCH   5   9
BRANCH   1  11
ATOM     11  O   UNL     1      -1.663  -0.994   0.603  0.00  0.00    +0.000 OA
BRANCH  11  13
ATOM     12  C   UNL     1      -1.289   0.943  -0.743  0.00  0.00    +0.000 C 
ATOM     13  C   UNL     1      -1.714  -0.498  -0.727  0.00  0.00    +0.000 C 
ATOM     14  O   UNL     1      -3.143  -0.612  -1.259  0.00  0.00    +0.000 OA
ATOM     15  C   UNL     1      -3.245   0.171  -2.543  0.00  0.00    +0.000 C 
ATOM     16  C   UNL     1      -2.523   1.312  -2.718  0.00  0.00    +0.000 C 
ATOM     17  C   UNL     1      -2.707   2.213  -4.227  0.00  0.00    +0.000 C 
ATOM     18  O   UNL     1      -2.869   1.814  -5.423  0.00  0.00    +0.000 OA
ATOM     19  O   UNL     1      -2.592   3.888  -3.535  0.00  0.00    +0.000 OA
ATOM     20  C   UNL     1      -1.308   3.984  -2.833  0.00  0.00    +0.000 C 
ATOM     21  C   UNL     1      -1.176   3.144  -1.671  0.00  0.00    +0.000 C 
ATOM     22  C   UNL     1      -1.673   1.782  -1.739  0.00  0.00    +0.000 C 
BRANCH  12  24
ATOM     23  C   UNL     1       0.911  -0.006  -0.045  0.00  0.00    +0.000 C 
ATOM     24  C   UNL     1       0.231   0.943  -0.743  0.00  0.00    +0.000 C 
ENDBRANCH  12  24
ENDBRANCH  11  13
ENDBRANCH   1  11
BRANCH   3  25
ATOM     25  C   UNL     1      -1.190   0.884  -0.691  0.00  0.00    +0.000 C 
BRANCH  25  26
ATOM     26  O   UNL     1      -1.107   1.315  -2.041  0.00  0.00    +0.000 OA
ATOM     27  H   UNL     1      -2.001   1.212  -2.478  0.00  0.00    +0.000 HD
ENDBRANCH  25  26
ENDBRANCH   3  25
BRANCH   6  28
ATOM     28  O   UNL     1      -4.143  -1.879   0.686  0.00  0.00    +0.000 OA
BRANCH  28  29
ATOM     29  C   UNL     1      -3.244  -2.752   0.019  0.00  0.00    +0.000 C 
ATOM     30  O   UNL     1      -2.202  -2.286  -0.540  0.00  0.00    +0.000 OA
BRANCH  29  31
ATOM     31  C   UNL     1      -3.527  -4.245  -0.027  0.00  0.00    +0.000 A 
ATOM     32  C   UNL     1      -4.792  -4.695  -0.321  0.00  0.00    +0.000 A 
ATOM     33  C   UNL     1      -5.096  -6.045  -0.348  0.00  0.00    +0.000 A 
ATOM     34  C   UNL     1      -4.072  -6.949  -0.089  0.00  0.00    +0.000 A 
ATOM     35  C   UNL     1      -2.801  -6.529   0.186  0.00  0.00    +0.000 A 
ATOM     36  C   UNL     1      -2.505  -5.162   0.231  0.00  0.00    +0.000 A 
BRANCH  36  37
ATOM     37  C   UNL     1      -1.098  -4.685   0.553  0.00  0.00    +0.000 A 
ATOM     38  C   UNL     1      -0.874  -3.886   1.648  0.00  0.00    +0.000 A 
ATOM     39  C   UNL     1       0.398  -3.440   1.931  0.00  0.00    +0.000 A 
ATOM     40  C   UNL     1       1.484  -3.796   1.125  0.00  0.00    +0.000 A 
ATOM     41  C   UNL     1       1.230  -4.641   0.025  0.00  0.00    +0.000 A 
ATOM     42  C   UNL     1      -0.048  -5.056  -0.265  0.00  0.00    +0.000 A 
BRANCH  41  43
ATOM     43  O   UNL     1       2.222  -5.056  -0.796  0.00  0.00    +0.000 OA
ATOM     44  H   UNL     1       3.166  -4.777  -0.620  0.00  0.00    +0.000 HD
ENDBRANCH  41  43
ENDBRANCH  36  37
BRANCH  32  45
ATOM     45  O   UNL     1      -5.806  -3.794  -0.627  0.00  0.00    +0.000 OA
ATOM     46  H   UNL     1      -5.622  -2.811  -0.618  0.00  0.00    +0.000 HD
ENDBRANCH  32  45
BRANCH  34  47
ATOM     47  O   UNL     1      -4.338  -8.303  -0.089  0.00  0.00    +0.000 OA
ATOM     48  H   UNL     1      -3.604  -8.956   0.096  0.00  0.00    +0.000 HD
ENDBRANCH  34  47
ENDBRANCH  29  31
ENDBRANCH  28  29
ENDBRANCH   6  28
TORSDOF 14
