
 OpenBabel03132512093D

 72 76  0  0  0  0  0  0  0  0999 V2000
    0.9549   -0.0690    0.0566 C   0  0  0  0  0  0  0  0  0  0  0  0
    0.2747    0.8640    0.7759 C   0  0  0  0  0  0  0  0  0  0  0  0
   -1.2453    0.8640    0.7759 C   0  0  0  0  0  0  0  0  0  0  0  0
   -1.6704    0.8487   -0.6650 C   0  0  0  0  0  0  0  0  0  0  0  0
   -1.6187   -0.4810   -1.1606 O   0  0  0  0  0  0  0  0  0  0  0  0
   -2.4919   -1.3036   -0.4008 C   0  0  0  0  0  0  0  0  0  0  0  0
   -1.9631   -1.0174    1.0066 O   0  0  0  0  0  0  0  0  0  0  0  0
   -2.0207    0.3880    1.2599 C   0  0  0  0  0  0  0  0  0  0  0  0
   -1.2218    1.0652    0.1584 C   0  0  0  0  0  0  0  0  0  0  0  0
   -1.2181    2.4692    0.3711 O   0  0  0  0  0  0  0  0  0  0  0  0
   -3.3392    0.9359    1.2093 C   0  0  0  0  0  0  0  0  0  0  0  0
   -3.2864    2.3249    1.4997 O   0  0  0  0  0  0  0  0  0  0  0  0
   -3.9237    0.7287   -0.1899 C   0  0  0  0  0  0  0  0  0  0  0  0
   -3.1384    1.4281   -1.1441 O   0  0  0  0  0  0  0  0  0  0  0  0
   -3.9224   -0.7675   -0.5185 C   0  0  0  0  0  0  0  0  0  0  0  0
   -4.4025   -0.9685   -1.8397 O   0  0  0  0  0  0  0  0  0  0  0  0
   -3.7252   -0.3773   -2.9389 C   0  0  0  0  0  0  0  0  0  0  0  0
   -2.6893    0.3317   -2.7401 O   0  0  0  0  0  0  0  0  0  0  0  0
   -4.2390   -0.5925   -4.3531 C   0  0  0  0  0  0  0  0  0  0  0  0
   -5.5822   -0.4771   -4.6187 C   0  0  0  0  0  0  0  0  0  0  0  0
   -6.4657   -0.0837   -3.6186 O   0  0  0  0  0  0  0  0  0  0  0  0
   -6.0994   -0.7202   -5.8785 C   0  0  0  0  0  0  0  0  0  0  0  0
   -5.2116   -1.0665   -6.8917 C   0  0  0  0  0  0  0  0  0  0  0  0
   -5.6887   -1.3340   -8.1579 O   0  0  0  0  0  0  0  0  0  0  0  0
   -3.8689   -1.1685   -6.6602 C   0  0  0  0  0  0  0  0  0  0  0  0
   -3.3550   -0.9405   -5.3790 C   0  0  0  0  0  0  0  0  0  0  0  0
   -1.8649   -1.0684   -5.1077 C   0  0  0  0  0  0  0  0  0  0  0  0
   -1.4137   -1.9816   -4.1857 C   0  0  0  0  0  0  0  0  0  0  0  0
   -0.0657   -2.0952   -3.9259 C   0  0  0  0  0  0  0  0  0  0  0  0
    0.8678   -1.2985   -4.5971 C   0  0  0  0  0  0  0  0  0  0  0  0
    0.3794   -0.3907   -5.5595 C   0  0  0  0  0  0  0  0  0  0  0  0
    1.2097    0.4025   -6.2738 O   0  0  0  0  0  0  0  0  0  0  0  0
   -0.9701   -0.2657   -5.7886 C   0  0  0  0  0  0  0  0  0  0  0  0
   -3.0996    1.3810   -0.7788 O   0  0  0  0  0  0  0  0  0  0  0  0
   -3.2009    2.6648    0.0037 C   0  0  0  0  0  0  0  0  0  0  0  0
   -2.4793    2.8394    1.1444 C   0  0  0  0  0  0  0  0  0  0  0  0
   -2.6630    4.3488    2.0463 C   0  0  0  0  0  0  0  0  0  0  0  0
   -2.8249    5.5445    1.6473 O   0  0  0  0  0  0  0  0  0  0  0  0
   -2.5479    3.6564    3.7211 O   0  0  0  0  0  0  0  0  0  0  0  0
   -1.2638    2.9545    3.8165 C   0  0  0  0  0  0  0  0  0  0  0  0
   -1.1318    1.7925    2.9771 C   0  0  0  0  0  0  0  0  0  0  0  0
   -1.6295    1.8606    1.6144 C   0  0  0  0  0  0  0  0  0  0  0  0
    0.4199   -0.8029   -0.5092 H   0  0  0  0  0  0  0  0  0  0  0  0
    2.0249   -0.0690    0.0566 H   0  0  0  0  0  0  0  0  0  0  0  0
    0.8097    1.5979    1.3417 H   0  0  0  0  0  0  0  0  0  0  0  0
   -1.7555    0.0135    1.1774 H   0  0  0  0  0  0  0  0  0  0  0  0
   -1.0122    1.4679   -1.2379 H   0  0  0  0  0  0  0  0  0  0  0  0
   -2.5167   -2.3348   -0.6851 H   0  0  0  0  0  0  0  0  0  0  0  0
   -1.6180    0.5706    2.2343 H   0  0  0  0  0  0  0  0  0  0  0  0
   -0.2161    0.6999    0.1710 H   0  0  0  0  0  0  0  0  0  0  0  0
   -1.6678    0.8494   -0.7900 H   0  0  0  0  0  0  0  0  0  0  0  0
   -2.1579    2.8106    0.3593 H   0  0  0  0  0  0  0  0  0  0  0  0
   -3.9578    0.4443    1.9308 H   0  0  0  0  0  0  0  0  0  0  0  0
   -2.7083    2.7846    0.8256 H   0  0  0  0  0  0  0  0  0  0  0  0
   -4.9267    1.1006   -0.2177 H   0  0  0  0  0  0  0  0  0  0  0  0
   -2.2001    1.0830   -1.1209 H   0  0  0  0  0  0  0  0  0  0  0  0
   -4.5575   -1.2862    0.1689 H   0  0  0  0  0  0  0  0  0  0  0  0
   -6.1267    0.1005   -2.6960 H   0  0  0  0  0  0  0  0  0  0  0  0
   -7.1498   -0.6442   -6.0677 H   0  0  0  0  0  0  0  0  0  0  0  0
   -5.0537   -1.5833   -8.8891 H   0  0  0  0  0  0  0  0  0  0  0  0
   -3.2078   -1.4238   -7.4619 H   0  0  0  0  0  0  0  0  0  0  0  0
   -2.1114   -2.6063   -3.6681 H   0  0  0  0  0  0  0  0  0  0  0  0
    0.2727   -2.8039   -3.1992 H   0  0  0  0  0  0  0  0  0  0  0  0
    1.9143   -1.3750   -4.3879 H   0  0  0  0  0  0  0  0  0  0  0  0
    2.1985    0.3428   -6.1373 H   0  0  0  0  0  0  0  0  0  0  0  0
   -1.3280    0.4540   -6.4949 H   0  0  0  0  0  0  0  0  0  0  0  0
   -3.8460    3.4460   -0.3405 H   0  0  0  0  0  0  0  0  0  0  0  0
   -0.5226    3.6482    3.4784 H   0  0  0  0  0  0  0  0  0  0  0  0
   -1.1313    2.6450    4.8321 H   0  0  0  0  0  0  0  0  0  0  0  0
   -0.0749    1.6705    2.8637 H   0  0  0  0  0  0  0  0  0  0  0  0
   -1.6498    0.9919    3.4627 H   0  0  0  0  0  0  0  0  0  0  0  0
   -1.7633    2.8821    1.9035 H   0  0  0  0  0  0  0  0  0  0  0  0
  1  2  2  0  0  0  0
  1 43  1  0  0  0  0
  1 44  1  0  0  0  0
  2  3  1  0  0  0  0
  2 45  1  0  0  0  0
  3  4  1  0  0  0  0
  3 42  1  0  0  0  0
  3 46  1  0  0  0  0
  4  5  1  0  0  0  0
  4 34  1  0  0  0  0
  4 47  1  0  0  0  0
  5  6  1  0  0  0  0
  6  7  1  0  0  0  0
  6 15  1  0  0  0  0
  6 48  1  0  0  0  0
  7  8  1  0  0  0  0
  8  9  1  0  0  0  0
  8 11  1  0  0  0  0
  8 49  1  0  0  0  0
  9 10  1  0  0  0  0
  9 50  1  0  0  0  0
  9 51  1  0  0  0  0
 10 52  1  0  0  0  0
 11 12  1  0  0  0  0
 11 13  1  0  0  0  0
 11 53  1  0  0  0  0
 12 54  1  0  0  0  0
 13 14  1  0  0  0  0
 13 15  1  0  0  0  0
 13 55  1  0  0  0  0
 14 56  1  0  0  0  0
 15 16  1  0  0  0  0
 15 57  1  0  0  0  0
 16 17  1  0  0  0  0
 17 18  2  0  0  0  0
 17 19  1  0  0  0  0
 19 20  1  0  0  0  0
 19 26  2  0  0  0  0
 20 21  1  0  0  0  0
 20 22  2  0  0  0  0
 21 58  1  0  0  0  0
 22 23  1  0  0  0  0
 22 59  1  0  0  0  0
 23 24  1  0  0  0  0
 23 25  2  0  0  0  0
 24 60  1  0  0  0  0
 25 26  1  0  0  0  0
 25 61  1  0  0  0  0
 26 27  1  0  0  0  0
 27 28  1  0  0  0  0
 27 33  2  0  0  0  0
 28 29  2  0  0  0  0
 28 62  1  0  0  0  0
 29 30  1  0  0  0  0
 29 63  1  0  0  0  0
 30 31  2  0  0  0  0
 30 64  1  0  0  0  0
 31 32  1  0  0  0  0
 31 33  1  0  0  0  0
 32 65  1  0  0  0  0
 33 66  1  0  0  0  0
 34 35  1  0  0  0  0
 35 36  2  0  0  0  0
 35 67  1  0  0  0  0
 36 37  1  0  0  0  0
 36 42  1  0  0  0  0
 37 38  2  0  0  0  0
 37 39  1  0  0  0  0
 39 40  1  0  0  0  0
 40 41  1  0  0  0  0
 40 68  1  0  0  0  0
 40 69  1  0  0  0  0
 41 42  1  0  0  0  0
 41 70  1  0  0  0  0
 41 71  1  0  0  0  0
 42 72  1  0  0  0  0
M  END
