REMARK  Name = 
REMARK  14 active torsions:
REMARK  status: ('A' for Active; 'I' for Inactive)
REMARK    1  A    between atoms: C_2  and  C_3
REMARK    2  A    between atoms: C_4  and  O_5
REMARK    3  A    between atoms: O_5  and  C_6
REMARK    4  A    between atoms: C_8  and  C_9
REMARK    5  A    between atoms: C_9  and  O_10
REMARK    6  A    between atoms: C_11  and  O_12
REMARK    7  A    between atoms: C_13  and  O_14
REMARK    8  A    between atoms: C_15  and  O_16
REMARK    9  A    between atoms: O_16  and  C_17
REMARK   10  A    between atoms: C_17  and  C_19
REMARK   11  A    between atoms: C_20  and  O_21
REMARK   12  A    between atoms: C_23  and  O_24
REMARK   13  A    between atoms: C_26  and  C_27
REMARK   14  A    between atoms: C_31  and  O_32
REMARK                            x       y       z     vdW  Elec       q    Type
REMARK                         _______ _______ _______ _____ _____    ______ ____
ROOT
ATOM      1  C   UNL     1      -2.492  -1.304  -0.401  0.00  0.00    +0.000 C 
ATOM      2  O   UNL     1      -1.963  -1.017   1.007  0.00  0.00    +0.000 OA
ATOM      3  C   UNL     1      -2.021   0.388   1.260  0.00  0.00    +0.000 C 
ATOM      4  C   UNL     1      -3.339   0.936   1.209  0.00  0.00    +0.000 C 
ATOM      5  C   UNL     1      -3.924   0.729  -0.190  0.00  0.00    +0.000 C 
ATOM      6  C   UNL     1      -3.922  -0.767  -0.518  0.00  0.00    +0.000 C 
ENDROOT
BRANCH   4   7
ATOM      7  O   UNL     1      -3.286   2.325   1.500  0.00  0.00    +0.000 OA
ATOM      8  H   UNL     1      -2.708   2.785   0.826  0.00  0.00    +0.000 HD
ENDBRANCH   4   7
BRANCH   5   9
ATOM      9  O   UNL     1      -3.138   1.428  -1.144  0.00  0.00    +0.000 OA
ATOM     10  H   UNL     1      -2.200   1.083  -1.121  0.00  0.00    +0.000 HD
ENDBRANCH   5   9
BRANCH   1  11
ATOM     11  O   UNL     1      -1.619  -0.481  -1.161  0.00  0.00    +0.000 OA
BRANCH  11  13
ATOM     12  C   UNL     1      -1.245   0.864   0.776  0.00  0.00    +0.000 C 
ATOM     13  C   UNL     1      -1.670   0.849  -0.665  0.00  0.00    +0.000 C 
ATOM     14  O   UNL     1      -3.100   1.381  -0.779  0.00  0.00    +0.000 OA
ATOM     15  C   UNL     1      -3.201   2.665   0.004  0.00  0.00    +0.000 C 
ATOM     16  C   UNL     1      -2.479   2.839   1.144  0.00  0.00    +0.000 C 
ATOM     17  C   UNL     1      -2.663   4.349   2.046  0.00  0.00    +0.000 C 
ATOM     18  O   UNL     1      -2.825   5.545   1.647  0.00  0.00    +0.000 OA
ATOM     19  O   UNL     1      -2.548   3.656   3.721  0.00  0.00    +0.000 OA
ATOM     20  C   UNL     1      -1.264   2.954   3.817  0.00  0.00    +0.000 C 
ATOM     21  C   UNL     1      -1.132   1.792   2.977  0.00  0.00    +0.000 C 
ATOM     22  C   UNL     1      -1.629   1.861   1.614  0.00  0.00    +0.000 C 
BRANCH  12  24
ATOM     23  C   UNL     1       0.955  -0.069   0.057  0.00  0.00    +0.000 C 
ATOM     24  C   UNL     1       0.275   0.864   0.776  0.00  0.00    +0.000 C 
ENDBRANCH  12  24
ENDBRANCH  11  13
ENDBRANCH   1  11
BRANCH   3  25
ATOM     25  C   UNL     1      -1.222   1.065   0.158  0.00  0.00    +0.000 C 
BRANCH  25  26
ATOM     26  O   UNL     1      -1.218   2.469   0.371  0.00  0.00    +0.000 OA
ATOM     27  H   UNL     1      -2.158   2.811   0.359  0.00  0.00    +0.000 HD
ENDBRANCH  25  26
ENDBRANCH   3  25
BRANCH   6  28
ATOM     28  O   UNL     1      -4.402  -0.969  -1.840  0.00  0.00    +0.000 OA
BRANCH  28  29
ATOM     29  C   UNL     1      -3.725  -0.377  -2.939  0.00  0.00    +0.000 C 
ATOM     30  O   UNL     1      -2.689   0.332  -2.740  0.00  0.00    +0.000 OA
BRANCH  29  31
ATOM     31  C   UNL     1      -4.239  -0.593  -4.353  0.00  0.00    +0.000 A 
ATOM     32  C   UNL     1      -5.582  -0.477  -4.619  0.00  0.00    +0.000 A 
ATOM     33  C   UNL     1      -6.099  -0.720  -5.878  0.00  0.00    +0.000 A 
ATOM     34  C   UNL     1      -5.212  -1.067  -6.892  0.00  0.00    +0.000 A 
ATOM     35  C   UNL     1      -3.869  -1.169  -6.660  0.00  0.00    +0.000 A 
ATOM     36  C   UNL     1      -3.355  -0.941  -5.379  0.00  0.00    +0.000 A 
BRANCH  36  37
ATOM     37  C   UNL     1      -1.865  -1.068  -5.108  0.00  0.00    +0.000 A 
ATOM     38  C   UNL     1      -1.414  -1.982  -4.186  0.00  0.00    +0.000 A 
ATOM     39  C   UNL     1      -0.066  -2.095  -3.926  0.00  0.00    +0.000 A 
ATOM     40  C   UNL     1       0.868  -1.298  -4.597  0.00  0.00    +0.000 A 
ATOM     41  C   UNL     1       0.379  -0.391  -5.559  0.00  0.00    +0.000 A 
ATOM     42  C   UNL     1      -0.970  -0.266  -5.789  0.00  0.00    +0.000 A 
BRANCH  41  43
ATOM     43  O   UNL     1       1.210   0.403  -6.274  0.00  0.00    +0.000 OA
ATOM     44  H   UNL     1       2.199   0.343  -6.137  0.00  0.00    +0.000 HD
ENDBRANCH  41  43
ENDBRANCH  36  37
BRANCH  32  45
ATOM     45  O   UNL     1      -6.466  -0.084  -3.619  0.00  0.00    +0.000 OA
ATOM     46  H   UNL     1      -6.127   0.101  -2.696  0.00  0.00    +0.000 HD
ENDBRANCH  32  45
BRANCH  34  47
ATOM     47  O   UNL     1      -5.689  -1.334  -8.158  0.00  0.00    +0.000 OA
ATOM     48  H   UNL     1      -5.054  -1.583  -8.889  0.00  0.00    +0.000 HD
ENDBRANCH  34  47
ENDBRANCH  29  31
ENDBRANCH  28  29
ENDBRANCH   6  28
TORSDOF 14
