
 OpenBabel03132512093D

 55 57  0  0  0  0  0  0  0  0999 V2000
    1.0576    0.0560   -0.0596 C   0  0  0  0  0  0  0  0  0  0  0  0
    0.3774    0.5055    1.0295 C   0  0  0  0  0  0  0  0  0  0  0  0
   -1.1450    0.5611    1.1643 C   0  0  0  0  0  0  0  0  0  0  0  0
   -1.5884    2.0138    1.3458 C   0  0  0  0  0  0  0  0  0  0  0  0
   -0.9431    2.5901    2.6074 C   0  0  0  0  0  0  0  0  0  0  0  0
   -1.3865    4.0428    2.7889 C   0  0  0  0  0  0  0  0  0  0  0  0
   -0.9551    4.8588    1.5813 C   0  0  0  0  0  0  0  0  0  0  0  0
   -2.8995    4.0977    2.9235 C   0  0  0  0  0  0  0  0  0  0  0  0
   -3.3024    3.3354    4.0517 O   0  0  0  0  0  0  0  0  0  0  0  0
   -0.7412    4.6190    4.0505 C   0  0  0  0  0  0  0  0  0  0  0  0
   -1.1527    5.9677    4.2181 O   0  0  0  0  0  0  0  0  0  0  0  0
    0.7813    4.5642    3.9163 C   0  0  0  0  0  0  0  0  0  0  0  0
    1.2246    3.1107    3.7341 C   0  0  0  0  0  0  0  0  0  0  0  0
    0.5793    2.5344    2.4726 C   0  0  0  0  0  0  0  0  0  0  0  0
    1.0109    3.3504    1.2649 C   0  0  0  0  0  0  0  0  0  0  0  0
    1.0227    1.0817    2.2910 C   0  0  0  0  0  0  0  0  0  0  0  0
    0.5914    0.2657    3.4986 C   0  0  0  0  0  0  0  0  0  0  0  0
    1.0319   -1.1778    3.3183 C   0  0  0  0  0  0  0  0  0  0  0  0
    1.8769   -1.7487    4.2187 C   0  0  0  0  0  0  0  0  0  0  0  0
    2.4623   -1.1592    5.5254 C   0  0  0  0  0  0  0  0  0  0  0  0
    1.9144   -0.3674    6.3550 O   0  0  0  0  0  0  0  0  0  0  0  0
    3.8854   -1.7769    5.5689 O   0  0  0  0  0  0  0  0  0  0  0  0
    3.6919   -3.2123    5.0367 C   0  0  0  0  0  0  0  0  0  0  0  0
    2.4148   -3.1940    4.1784 C   0  0  0  0  0  0  0  0  0  0  0  0
    1.4519   -4.1126    4.6737 O   0  0  0  0  0  0  0  0  0  0  0  0
    0.5226   -0.2976   -0.9161 H   0  0  0  0  0  0  0  0  0  0  0  0
    2.1276    0.0560   -0.0596 H   0  0  0  0  0  0  0  0  0  0  0  0
   -1.5961    0.1584    0.2815 H   0  0  0  0  0  0  0  0  0  0  0  0
   -1.4490   -0.0134    2.0142 H   0  0  0  0  0  0  0  0  0  0  0  0
   -1.2848    2.5883    0.4957 H   0  0  0  0  0  0  0  0  0  0  0  0
   -2.6535    2.0525    1.4405 H   0  0  0  0  0  0  0  0  0  0  0  0
   -1.2469    2.0157    3.4575 H   0  0  0  0  0  0  0  0  0  0  0  0
   -1.4065    4.4558    0.6988 H   0  0  0  0  0  0  0  0  0  0  0  0
   -1.2653    5.8750    1.7083 H   0  0  0  0  0  0  0  0  0  0  0  0
    0.1100    4.8201    1.4866 H   0  0  0  0  0  0  0  0  0  0  0  0
   -3.2097    5.1138    3.0504 H   0  0  0  0  0  0  0  0  0  0  0  0
   -3.3509    3.6946    2.0410 H   0  0  0  0  0  0  0  0  0  0  0  0
   -3.0125    2.3857    3.9331 H   0  0  0  0  0  0  0  0  0  0  0  0
   -1.0450    4.0446    4.9005 H   0  0  0  0  0  0  0  0  0  0  0  0
   -0.8686    6.5042    3.4234 H   0  0  0  0  0  0  0  0  0  0  0  0
    1.0858    5.1394    3.0669 H   0  0  0  0  0  0  0  0  0  0  0  0
    1.2321    4.9667    4.7993 H   0  0  0  0  0  0  0  0  0  0  0  0
    2.2897    3.0722    3.6391 H   0  0  0  0  0  0  0  0  0  0  0  0
    0.9210    2.5362    4.5842 H   0  0  0  0  0  0  0  0  0  0  0  0
    2.0760    3.3117    1.1704 H   0  0  0  0  0  0  0  0  0  0  0  0
    0.5596    2.9474    0.3824 H   0  0  0  0  0  0  0  0  0  0  0  0
    0.7008    4.3666    1.3919 H   0  0  0  0  0  0  0  0  0  0  0  0
    2.0878    1.0431    2.1963 H   0  0  0  0  0  0  0  0  0  0  0  0
    1.0427    0.6688    4.3811 H   0  0  0  0  0  0  0  0  0  0  0  0
   -0.4737    0.3044    3.5933 H   0  0  0  0  0  0  0  0  0  0  0  0
    0.6774   -1.7450    2.4831 H   0  0  0  0  0  0  0  0  0  0  0  0
    3.6071   -3.9138    5.8402 H   0  0  0  0  0  0  0  0  0  0  0  0
    4.5327   -3.5020    4.4416 H   0  0  0  0  0  0  0  0  0  0  0  0
    2.6427   -3.4750    3.1714 H   0  0  0  0  0  0  0  0  0  0  0  0
    1.2182   -3.8746    5.6165 H   0  0  0  0  0  0  0  0  0  0  0  0
  1  2  2  0  0  0  0
  1 26  1  0  0  0  0
  1 27  1  0  0  0  0
  2  3  1  0  0  0  0
  2 16  1  0  0  0  0
  3  4  1  0  0  0  0
  3 28  1  0  0  0  0
  3 29  1  0  0  0  0
  4  5  1  0  0  0  0
  4 30  1  0  0  0  0
  4 31  1  0  0  0  0
  5  6  1  0  0  0  0
  5 14  1  0  0  0  0
  5 32  1  0  0  0  0
  6  7  1  0  0  0  0
  6  8  1  0  0  0  0
  6 10  1  0  0  0  0
  7 33  1  0  0  0  0
  7 34  1  0  0  0  0
  7 35  1  0  0  0  0
  8  9  1  0  0  0  0
  8 36  1  0  0  0  0
  8 37  1  0  0  0  0
  9 38  1  0  0  0  0
 10 11  1  0  0  0  0
 10 12  1  0  0  0  0
 10 39  1  0  0  0  0
 11 40  1  0  0  0  0
 12 13  1  0  0  0  0
 12 41  1  0  0  0  0
 12 42  1  0  0  0  0
 13 14  1  0  0  0  0
 13 43  1  0  0  0  0
 13 44  1  0  0  0  0
 14 15  1  0  0  0  0
 14 16  1  0  0  0  0
 15 45  1  0  0  0  0
 15 46  1  0  0  0  0
 15 47  1  0  0  0  0
 16 17  1  0  0  0  0
 16 48  1  0  0  0  0
 17 18  1  0  0  0  0
 17 49  1  0  0  0  0
 17 50  1  0  0  0  0
 18 19  2  0  0  0  0
 18 51  1  0  0  0  0
 19 20  1  0  0  0  0
 19 24  1  0  0  0  0
 20 21  2  0  0  0  0
 20 22  1  0  0  0  0
 22 23  1  0  0  0  0
 23 24  1  0  0  0  0
 23 52  1  0  0  0  0
 23 53  1  0  0  0  0
 24 25  1  0  0  0  0
 24 54  1  0  0  0  0
 25 55  1  0  0  0  0
M  END
