REMARK  Name = 
REMARK  8 active torsions:
REMARK  status: ('A' for Active; 'I' for Inactive)
REMARK    1  A    between atoms: C_6  and  C_7
REMARK    2  A    between atoms: C_6  and  C_8
REMARK    3  A    between atoms: C_8  and  O_9
REMARK    4  A    between atoms: C_10  and  O_11
REMARK    5  A    between atoms: C_14  and  C_15
REMARK    6  A    between atoms: C_16  and  C_17
REMARK    7  A    between atoms: C_17  and  C_18
REMARK    8  A    between atoms: C_24  and  O_25
REMARK                            x       y       z     vdW  Elec       q    Type
REMARK                         _______ _______ _______ _____ _____    ______ ____
ROOT
ATOM      1  C   UNL     1       1.058   0.056  -0.060  0.00  0.00    +0.000 C 
ATOM      2  C   UNL     1       0.377   0.505   1.030  0.00  0.00    +0.000 C 
ATOM      3  C   UNL     1      -1.145   0.561   1.164  0.00  0.00    +0.000 C 
ATOM      4  C   UNL     1      -1.588   2.014   1.346  0.00  0.00    +0.000 C 
ATOM      5  C   UNL     1      -0.943   2.590   2.607  0.00  0.00    +0.000 C 
ATOM      6  C   UNL     1      -1.387   4.043   2.789  0.00  0.00    +0.000 C 
ATOM      7  C   UNL     1      -0.955   4.859   1.581  0.00  0.00    +0.000 C 
ATOM      8  C   UNL     1      -0.741   4.619   4.051  0.00  0.00    +0.000 C 
ATOM      9  C   UNL     1       0.781   4.564   3.916  0.00  0.00    +0.000 C 
ATOM     10  C   UNL     1       1.225   3.111   3.734  0.00  0.00    +0.000 C 
ATOM     11  C   UNL     1       0.579   2.534   2.473  0.00  0.00    +0.000 C 
ATOM     12  C   UNL     1       1.011   3.350   1.265  0.00  0.00    +0.000 C 
ATOM     13  C   UNL     1       1.023   1.082   2.291  0.00  0.00    +0.000 C 
ENDROOT
BRANCH   8  14
ATOM     14  O   UNL     1      -1.153   5.968   4.218  0.00  0.00    +0.000 OA
ATOM     15  H   UNL     1      -0.869   6.504   3.423  0.00  0.00    +0.000 HD
ENDBRANCH   8  14
BRANCH   6  16
ATOM     16  C   UNL     1      -2.900   4.098   2.924  0.00  0.00    +0.000 C 
BRANCH  16  17
ATOM     17  O   UNL     1      -3.302   3.335   4.052  0.00  0.00    +0.000 OA
ATOM     18  H   UNL     1      -3.013   2.386   3.933  0.00  0.00    +0.000 HD
ENDBRANCH  16  17
ENDBRANCH   6  16
BRANCH  13  19
ATOM     19  C   UNL     1       0.591   0.266   3.499  0.00  0.00    +0.000 C 
BRANCH  19  20
ATOM     20  C   UNL     1       1.032  -1.178   3.318  0.00  0.00    +0.000 C 
ATOM     21  C   UNL     1       1.877  -1.749   4.219  0.00  0.00    +0.000 C 
ATOM     22  C   UNL     1       2.462  -1.159   5.525  0.00  0.00    +0.000 C 
ATOM     23  O   UNL     1       1.914  -0.367   6.355  0.00  0.00    +0.000 OA
ATOM     24  O   UNL     1       3.885  -1.777   5.569  0.00  0.00    +0.000 OA
ATOM     25  C   UNL     1       3.692  -3.212   5.037  0.00  0.00    +0.000 C 
ATOM     26  C   UNL     1       2.415  -3.194   4.178  0.00  0.00    +0.000 C 
BRANCH  26  27
ATOM     27  O   UNL     1       1.452  -4.113   4.674  0.00  0.00    +0.000 OA
ATOM     28  H   UNL     1       1.218  -3.875   5.617  0.00  0.00    +0.000 HD
ENDBRANCH  26  27
ENDBRANCH  19  20
ENDBRANCH  13  19
TORSDOF 6
