REMARK  Name = 
REMARK  5 active torsions:
REMARK  status: ('A' for Active; 'I' for Inactive)
REMARK    1  A    between atoms: C_1  and  O_2
REMARK    2  A    between atoms: O_2  and  C_3
REMARK    3  A    between atoms: C_7  and  C_8
REMARK    4  A    between atoms: C_12  and  C_13
REMARK    5  A    between atoms: C_17  and  C_18
REMARK                            x       y       z     vdW  Elec       q    Type
REMARK                         _______ _______ _______ _____ _____    ______ ____
ROOT
ATOM      1  C   UNL     1       0.945  -1.142   2.087  0.00  0.00    +0.000 C 
ATOM      2  O   UNL     1       1.967  -0.504   3.030  0.00  0.00    +0.000 OA
ATOM      3  C   UNL     1       1.996   1.009   2.803  0.00  0.00    +0.000 C 
ATOM      4  O   UNL     1       1.922   2.610   6.917  0.00  0.00    +0.000 OA
ATOM      5  C   UNL     1       1.279   3.424   5.947  0.00  0.00    +0.000 C 
ATOM      6  C   UNL     1       1.741   4.856   5.730  0.00  0.00    +0.000 C 
ATOM      7  C   UNL     1      -0.223   3.647   6.480  0.00  0.00    +0.000 C 
ATOM      8  C   UNL     1      -0.922   2.218   6.731  0.00  0.00    +0.000 C 
ATOM      9  C   UNL     1      -2.145   1.829   6.103  0.00  0.00    +0.000 C 
ATOM     10  C   UNL     1      -2.392   0.339   6.346  0.00  0.00    +0.000 C 
ATOM     11  C   UNL     1      -3.575   0.169   7.285  0.00  0.00    +0.000 C 
ATOM     12  C   UNL     1      -2.693  -0.352   5.015  0.00  0.00    +0.000 C 
ATOM     13  C   UNL     1      -1.489  -1.144   4.577  0.00  0.00    +0.000 C 
ATOM     14  C   UNL     1      -1.206  -1.236   3.246  0.00  0.00    +0.000 C 
ATOM     15  C   UNL     1      -0.009  -2.028   2.892  0.00  0.00    +0.000 C 
ATOM     16  C   UNL     1      -0.413  -3.237   2.065  0.00  0.00    +0.000 C 
ATOM     17  C   UNL     1       3.297   1.584   3.367  0.00  0.00    +0.000 C 
ATOM     18  O   UNL     1       3.009   2.296   4.690  0.00  0.00    +0.000 OA
ATOM     19  O   UNL     1       1.577   2.833   4.680  0.00  0.00    +0.000 OA
ENDROOT
BRANCH   1  21
ATOM     20  C   UNL     1       0.945  -0.079   0.026  0.00  0.00    +0.000 C 
ATOM     21  O   UNL     1       0.471  -0.015   1.364  0.00  0.00    +0.000 OA
ENDBRANCH   1  21
TORSDOF 1
