REMARK  Name = 
REMARK  5 active torsions:
REMARK  status: ('A' for Active; 'I' for Inactive)
REMARK    1  A    between atoms: C_1  and  O_2
REMARK    2  A    between atoms: O_2  and  C_3
REMARK    3  A    between atoms: C_7  and  C_8
REMARK    4  A    between atoms: C_12  and  C_13
REMARK    5  A    between atoms: C_17  and  C_18
REMARK                            x       y       z     vdW  Elec       q    Type
REMARK                         _______ _______ _______ _____ _____    ______ ____
ROOT
ATOM      1  C   UNL     1       1.034   0.162   2.306  0.00  0.00    +0.000 C 
ATOM      2  O   UNL     1       1.643   1.219   3.230  0.00  0.00    +0.000 OA
ATOM      3  C   UNL     1       1.687   2.566   2.505  0.00  0.00    +0.000 C 
ATOM      4  O   UNL     1       0.136   5.361   5.551  0.00  0.00    +0.000 OA
ATOM      5  C   UNL     1      -0.165   5.712   4.208  0.00  0.00    +0.000 C 
ATOM      6  C   UNL     1       0.285   7.054   3.654  0.00  0.00    +0.000 C 
ATOM      7  C   UNL     1      -1.766   5.854   4.136  0.00  0.00    +0.000 C 
ATOM      8  C   UNL     1      -2.451   4.489   4.645  0.00  0.00    +0.000 C 
ATOM      9  C   UNL     1      -3.366   3.733   3.849  0.00  0.00    +0.000 C 
ATOM     10  C   UNL     1      -3.622   2.379   4.514  0.00  0.00    +0.000 C 
ATOM     11  C   UNL     1      -5.048   2.332   5.037  0.00  0.00    +0.000 C 
ATOM     12  C   UNL     1      -3.418   1.262   3.489  0.00  0.00    +0.000 C 
ATOM     13  C   UNL     1      -2.106   0.571   3.754  0.00  0.00    +0.000 C 
ATOM     14  C   UNL     1      -1.379   0.105   2.698  0.00  0.00    +0.000 C 
ATOM     15  C   UNL     1      -0.101  -0.560   3.034  0.00  0.00    +0.000 C 
ATOM     16  C   UNL     1      -0.147  -2.017   2.606  0.00  0.00    +0.000 C 
ATOM     17  C   UNL     1       2.690   3.488   3.202  0.00  0.00    +0.000 C 
ATOM     18  O   UNL     1       1.936   4.529   4.030  0.00  0.00    +0.000 OA
ATOM     19  O   UNL     1       0.574   4.803   3.389  0.00  0.00    +0.000 OA
ENDROOT
BRANCH   1  21
ATOM     20  C   UNL     1       1.034   0.093  -0.012  0.00  0.00    +0.000 C 
ATOM     21  O   UNL     1       0.561   0.797   1.127  0.00  0.00    +0.000 OA
ENDBRANCH   1  21
TORSDOF 1
