
 OpenBabel03132512093D

 47 50  0  0  0  0  0  0  0  0999 V2000
    1.0340    0.0933   -0.0119 C   0  0  0  0  0  0  0  0  0  0  0  0
    0.5607    0.7968    1.1271 O   0  0  0  0  0  0  0  0  0  0  0  0
    1.0340    0.1620    2.3059 C   0  0  0  0  0  0  0  0  0  0  0  0
    1.6425    1.2193    3.2297 O   0  0  0  0  0  0  0  0  0  0  0  0
    1.6871    2.5658    2.5047 C   0  0  0  0  0  0  0  0  0  0  0  0
    0.1362    5.3612    5.5506 O   0  0  0  0  0  0  0  0  0  0  0  0
   -0.1649    5.7116    4.2079 C   0  0  0  0  0  0  0  0  0  0  0  0
    0.2848    7.0537    3.6539 C   0  0  0  0  0  0  0  0  0  0  0  0
   -1.7665    5.8544    4.1356 C   0  0  0  0  0  0  0  0  0  0  0  0
   -2.4508    4.4888    4.6449 C   0  0  0  0  0  0  0  0  0  0  0  0
   -3.3660    3.7329    3.8494 C   0  0  0  0  0  0  0  0  0  0  0  0
   -3.6218    2.3787    4.5137 C   0  0  0  0  0  0  0  0  0  0  0  0
   -5.0482    2.3322    5.0368 C   0  0  0  0  0  0  0  0  0  0  0  0
   -3.4177    1.2617    3.4888 C   0  0  0  0  0  0  0  0  0  0  0  0
   -2.1059    0.5705    3.7540 C   0  0  0  0  0  0  0  0  0  0  0  0
   -1.3788    0.1050    2.6982 C   0  0  0  0  0  0  0  0  0  0  0  0
   -0.1012   -0.5596    3.0343 C   0  0  0  0  0  0  0  0  0  0  0  0
   -0.1473   -2.0172    2.6056 C   0  0  0  0  0  0  0  0  0  0  0  0
    2.6898    3.4877    3.2018 C   0  0  0  0  0  0  0  0  0  0  0  0
    1.9356    4.5285    4.0304 O   0  0  0  0  0  0  0  0  0  0  0  0
    0.5739    4.8028    3.3890 O   0  0  0  0  0  0  0  0  0  0  0  0
    0.6774    0.5715   -0.9002 H   0  0  0  0  0  0  0  0  0  0  0  0
    0.6774   -0.9151    0.0180 H   0  0  0  0  0  0  0  0  0  0  0  0
    2.1040    0.0933   -0.0119 H   0  0  0  0  0  0  0  0  0  0  0  0
    1.7721   -0.5634    2.0339 H   0  0  0  0  0  0  0  0  0  0  0  0
    1.9882    2.4143    1.4891 H   0  0  0  0  0  0  0  0  0  0  0  0
   -0.1515    7.8420    4.2310 H   0  0  0  0  0  0  0  0  0  0  0  0
    1.3514    7.1218    3.7061 H   0  0  0  0  0  0  0  0  0  0  0  0
   -0.0288    7.1421    2.6348 H   0  0  0  0  0  0  0  0  0  0  0  0
   -2.0621    6.0462    3.1253 H   0  0  0  0  0  0  0  0  0  0  0  0
   -2.0808    6.6650    4.7593 H   0  0  0  0  0  0  0  0  0  0  0  0
   -3.0905    4.8477    5.4240 H   0  0  0  0  0  0  0  0  0  0  0  0
   -1.6451    3.8246    4.8785 H   0  0  0  0  0  0  0  0  0  0  0  0
   -4.2586    3.9741    3.3110 H   0  0  0  0  0  0  0  0  0  0  0  0
   -2.9392    2.2457    5.3269 H   0  0  0  0  0  0  0  0  0  0  0  0
   -5.2270    1.3851    5.5013 H   0  0  0  0  0  0  0  0  0  0  0  0
   -5.1908    3.1137    5.7536 H   0  0  0  0  0  0  0  0  0  0  0  0
   -5.7308    2.4652    4.2236 H   0  0  0  0  0  0  0  0  0  0  0  0
   -3.4083    1.6789    2.5035 H   0  0  0  0  0  0  0  0  0  0  0  0
   -4.2163    0.5540    3.5688 H   0  0  0  0  0  0  0  0  0  0  0  0
   -2.3853   -0.3160    4.2841 H   0  0  0  0  0  0  0  0  0  0  0  0
   -1.4855    1.2660    4.2796 H   0  0  0  0  0  0  0  0  0  0  0  0
   -2.0950   -0.2402    1.9820 H   0  0  0  0  0  0  0  0  0  0  0  0
    0.0619   -0.5128    4.0908 H   0  0  0  0  0  0  0  0  0  0  0  0
    0.7811   -2.4901    2.8489 H   0  0  0  0  0  0  0  0  0  0  0  0
   -0.9454   -2.5141    3.1164 H   0  0  0  0  0  0  0  0  0  0  0  0
   -0.3102   -2.0733    1.5495 H   0  0  0  0  0  0  0  0  0  0  0  0
  1  2  1  0  0  0  0
  1 22  1  0  0  0  0
  1 23  1  0  0  0  0
  1 24  1  0  0  0  0
  2  3  1  0  0  0  0
  3  4  1  0  0  0  0
  3 17  1  0  0  0  0
  3 25  1  0  0  0  0
  4  5  1  0  0  0  0
  5  6  1  0  0  0  0
  5 19  1  0  0  0  0
  5 26  1  0  0  0  0
  6  7  1  0  0  0  0
  7  8  1  0  0  0  0
  7  9  1  0  0  0  0
  7 21  1  0  0  0  0
  8 27  1  0  0  0  0
  8 28  1  0  0  0  0
  8 29  1  0  0  0  0
  9 10  1  0  0  0  0
  9 30  1  0  0  0  0
  9 31  1  0  0  0  0
 10 11  1  0  0  0  0
 10 32  1  0  0  0  0
 10 33  1  0  0  0  0
 11 12  1  0  0  0  0
 11 19  1  0  0  0  0
 11 34  1  0  0  0  0
 12 13  1  0  0  0  0
 12 14  1  0  0  0  0
 12 35  1  0  0  0  0
 13 36  1  0  0  0  0
 13 37  1  0  0  0  0
 13 38  1  0  0  0  0
 14 15  1  0  0  0  0
 14 39  1  0  0  0  0
 14 40  1  0  0  0  0
 15 16  1  0  0  0  0
 15 41  1  0  0  0  0
 15 42  1  0  0  0  0
 16 17  1  0  0  0  0
 16 19  1  0  0  0  0
 16 43  1  0  0  0  0
 17 18  1  0  0  0  0
 17 44  1  0  0  0  0
 18 45  1  0  0  0  0
 18 46  1  0  0  0  0
 18 47  1  0  0  0  0
 19 20  1  0  0  0  0
 20 21  1  0  0  0  0
M  END
