REMARK  Name = 
REMARK  23 active torsions:
REMARK  status: ('A' for Active; 'I' for Inactive)
REMARK    1  A    between atoms: C_1  and  C_2
REMARK    2  A    between atoms: C_2  and  C_3
REMARK    3  A    between atoms: C_2  and  O_4
REMARK    4  A    between atoms: C_2  and  C_5
REMARK    5  A    between atoms: C_8  and  C_9
REMARK    6  A    between atoms: C_8  and  C_10
REMARK    7  A    between atoms: C_11  and  O_12
REMARK    8  A    between atoms: C_14  and  C_15
REMARK    9  A    between atoms: C_18  and  O_19
REMARK   10  A    between atoms: O_19  and  C_20
REMARK   11  A    between atoms: C_22  and  C_23
REMARK   12  A    between atoms: C_23  and  O_24
REMARK   13  A    between atoms: C_25  and  O_26
REMARK   14  A    between atoms: C_27  and  O_28
REMARK   15  A    between atoms: C_29  and  O_30
REMARK   16  A    between atoms: C_32  and  C_33
REMARK   17  A    between atoms: C_32  and  C_34
REMARK   18  A    between atoms: C_35  and  O_36
REMARK   19  A    between atoms: O_36  and  C_37
REMARK   20  A    between atoms: C_40  and  O_41
REMARK   21  A    between atoms: C_42  and  O_43
REMARK   22  A    between atoms: C_44  and  O_45
REMARK   23  A    between atoms: C_53  and  C_54
REMARK                            x       y       z     vdW  Elec       q    Type
REMARK                         _______ _______ _______ _____ _____    ______ ____
ROOT
ATOM      1  C   UNL     1       1.172   5.104   1.893  0.00  0.00    +0.000 C 
ATOM      2  C   UNL     1       0.716   4.565   3.271  0.00  0.00    +0.000 C 
ATOM      3  C   UNL     1       1.989   4.737   4.142  0.00  0.00    +0.000 C 
ATOM      4  C   UNL     1       3.150   4.386   3.188  0.00  0.00    +0.000 C 
ATOM      5  C   UNL     1       3.602   2.947   3.380  0.00  0.00    +0.000 C 
ATOM      6  C   UNL     1       4.345   5.284   3.465  0.00  0.00    +0.000 C 
ATOM      7  C   UNL     1       5.746   5.245   2.909  0.00  0.00    +0.000 C 
ATOM      8  C   UNL     1       5.811   5.087   1.426  0.00  0.00    +0.000 C 
ATOM      9  C   UNL     1       5.651   6.314   0.676  0.00  0.00    +0.000 C 
ATOM     10  C   UNL     1       6.640   7.372   0.889  0.00  0.00    +0.000 C 
ATOM     11  C   UNL     1       8.046   6.797   0.964  0.00  0.00    +0.000 C 
ATOM     12  C   UNL     1       6.363   8.092   2.199  0.00  0.00    +0.000 C 
ATOM     13  C   UNL     1       6.508   8.351  -0.290  0.00  0.00    +0.000 C 
ATOM     14  C   UNL     1       5.072   8.858  -0.420  0.00  0.00    +0.000 C 
ATOM     15  C   UNL     1       4.078   7.684  -0.446  0.00  0.00    +0.000 C 
ATOM     16  C   UNL     1       4.388   6.883   0.774  0.00  0.00    +0.000 C 
ATOM     17  C   UNL     1       3.625   6.952   1.803  0.00  0.00    +0.000 C 
ATOM     18  C   UNL     1       3.711   6.648   3.264  0.00  0.00    +0.000 C 
ATOM     19  C   UNL     1       3.238   7.106   4.634  0.00  0.00    +0.000 C 
ATOM     20  C   UNL     1       3.472   5.676   1.061  0.00  0.00    +0.000 C 
ATOM     21  C   UNL     1       2.631   4.619   1.759  0.00  0.00    +0.000 C 
ATOM     22  C   UNL     1       2.711   3.346   0.932  0.00  0.00    +0.000 C 
ENDROOT
BRANCH   1  26
ATOM     23  C   UNL     1       0.940   2.426  -0.420  0.00  0.00    +0.000 C 
ATOM     24  C   UNL     1       0.665   3.561  -1.437  0.00  0.00    +0.000 C 
ATOM     25  C   UNL     1       0.896   4.840  -0.590  0.00  0.00    +0.000 C 
ATOM     26  C   UNL     1       0.320   4.485   0.797  0.00  0.00    +0.000 C 
ATOM     27  C   UNL     1      -1.094   5.021   0.956  0.00  0.00    +0.000 C 
ATOM     28  O   UNL     1       0.348   2.950   0.904  0.00  0.00    +0.000 OA
BRANCH  23  30
ATOM     29  C   UNL     1       0.940  -0.005   0.080  0.00  0.00    +0.000 C 
ATOM     30  C   UNL     1       0.433   1.066  -0.872  0.00  0.00    +0.000 C 
ATOM     31  C   UNL     1       0.940   0.777  -2.276  0.00  0.00    +0.000 C 
BRANCH  30  32
ATOM     32  O   UNL     1      -0.987   1.066  -0.872  0.00  0.00    +0.000 OA
ATOM     33  H   UNL     1      -1.320   0.171  -1.169  0.00  0.00    +0.000 HD
ENDBRANCH  30  32
ENDBRANCH  23  30
ENDBRANCH   1  26
BRANCH   2  34
ATOM     34  O   UNL     1      -0.420   5.239   3.792  0.00  0.00    +0.000 OA
ATOM     35  H   UNL     1      -0.218   6.215   3.879  0.00  0.00    +0.000 HD
ENDBRANCH   2  34
BRANCH  13  36
ATOM     36  O   UNL     1       6.858   7.669  -1.486  0.00  0.00    +0.000 OA
BRANCH  36  37
ATOM     37  C   UNL     1       5.980   6.570  -1.679  0.00  0.00    +0.000 C 
ATOM     38  O   UNL     1       5.809   5.085  -1.348  0.00  0.00    +0.000 OA
ATOM     39  C   UNL     1       5.086   4.951  -0.122  0.00  0.00    +0.000 C 
ATOM     40  C   UNL     1       3.770   5.507  -0.158  0.00  0.00    +0.000 C 
ATOM     41  C   UNL     1       3.859   7.009  -0.441  0.00  0.00    +0.000 C 
ATOM     42  C   UNL     1       4.599   7.228  -1.764  0.00  0.00    +0.000 C 
BRANCH  42  43
ATOM     43  O   UNL     1       4.745   8.619  -2.007  0.00  0.00    +0.000 OA
ATOM     44  H   UNL     1       5.266   9.035  -1.261  0.00  0.00    +0.000 HD
ENDBRANCH  42  43
BRANCH  41  45
ATOM     45  O   UNL     1       4.561   7.653   0.612  0.00  0.00    +0.000 OA
ATOM     46  H   UNL     1       5.483   7.271   0.679  0.00  0.00    +0.000 HD
ENDBRANCH  41  45
BRANCH  40  47
ATOM     47  O   UNL     1       3.133   5.298   1.093  0.00  0.00    +0.000 OA
ATOM     48  H   UNL     1       3.663   5.742   1.815  0.00  0.00    +0.000 HD
ENDBRANCH  40  47
ENDBRANCH  36  37
ENDBRANCH  13  36
BRANCH   8  49
ATOM     49  O   UNL     1       4.719   4.253   1.066  0.00  0.00    +0.000 OA
BRANCH  49  50
ATOM     50  C   UNL     1       3.501   4.885   1.429  0.00  0.00    +0.000 C 
ATOM     51  O   UNL     1       3.483   5.300   2.903  0.00  0.00    +0.000 OA
ATOM     52  C   UNL     1       4.704   5.971   3.223  0.00  0.00    +0.000 C 
ATOM     53  C   UNL     1       4.926   7.167   2.474  0.00  0.00    +0.000 C 
ATOM     54  C   UNL     1       5.002   6.828   0.983  0.00  0.00    +0.000 C 
ATOM     55  C   UNL     1       3.705   6.130   0.560  0.00  0.00    +0.000 C 
BRANCH  55  56
ATOM     56  O   UNL     1       3.788   5.752  -0.806  0.00  0.00    +0.000 OA
ATOM     57  H   UNL     1       4.559   5.128  -0.933  0.00  0.00    +0.000 HD
ENDBRANCH  55  56
BRANCH  54  58
ATOM     58  O   UNL     1       6.106   5.969   0.744  0.00  0.00    +0.000 OA
ATOM     59  H   UNL     1       5.994   5.127   1.272  0.00  0.00    +0.000 HD
ENDBRANCH  54  58
BRANCH  53  60
ATOM     60  O   UNL     1       6.146   7.765   2.886  0.00  0.00    +0.000 OA
ATOM     61  H   UNL     1       6.900   7.128   2.727  0.00  0.00    +0.000 HD
ENDBRANCH  53  60
BRANCH  52  62
ATOM     62  C   UNL     1       5.834   5.017   2.870  0.00  0.00    +0.000 C 
BRANCH  62  63
ATOM     63  O   UNL     1       7.079   5.619   3.193  0.00  0.00    +0.000 OA
ATOM     64  H   UNL     1       7.184   6.466   2.674  0.00  0.00    +0.000 HD
ENDBRANCH  62  63
ENDBRANCH  52  62
ENDBRANCH  49  50
ENDBRANCH   8  49
TORSDOF 16
