REMARK  Name = 
REMARK  4 active torsions:
REMARK  status: ('A' for Active; 'I' for Inactive)
REMARK    1  A    between atoms: C_1  and  O_2
REMARK    2  A    between atoms: O_2  and  C_3
REMARK    3  A    between atoms: C_12  and  O_13
REMARK    4  A    between atoms: O_13  and  C_14
REMARK                            x       y       z     vdW  Elec       q    Type
REMARK                         _______ _______ _______ _____ _____    ______ ____
ROOT
ATOM      1  C   UNL     1       0.857   1.354  -1.997  0.00  0.00    +0.000 A 
ATOM      2  C   UNL     1       2.157   1.874  -2.036  0.00  0.00    +0.000 A 
ATOM      3  C   UNL     1       2.502   2.873  -2.896  0.00  0.00    +0.000 A 
ATOM      4  C   UNL     1       1.542   3.441  -3.727  0.00  0.00    +0.000 A 
ATOM      5  C   UNL     1       1.802   4.510  -4.623  0.00  0.00    +0.000 A 
ATOM      6  C   UNL     1       0.839   5.057  -5.402  0.00  0.00    +0.000 A 
ATOM      7  N   UNL     1      -0.441   4.555  -5.324  0.00  0.00    +0.000 N 
ATOM      8  C   UNL     1      -0.744   3.527  -4.526  0.00  0.00    +0.000 A 
ATOM      9  C   UNL     1       0.217   2.928  -3.697  0.00  0.00    +0.000 A 
ATOM     10  C   UNL     1      -0.109   1.864  -2.823  0.00  0.00    +0.000 A 
ATOM     11  C   UNL     1      -1.544   5.178  -6.091  0.00  0.00    +0.000 C 
ATOM     12  C   UNL     1      -1.124   5.688  -7.381  0.00  0.00    +0.000 C 
ATOM     13  C   UNL     1       0.136   6.510  -7.296  0.00  0.00    +0.000 A 
ATOM     14  C   UNL     1       0.367   7.523  -8.213  0.00  0.00    +0.000 A 
ATOM     15  C   UNL     1       1.582   8.164  -8.151  0.00  0.00    +0.000 A 
ATOM     16  C   UNL     1       2.542   7.828  -7.231  0.00  0.00    +0.000 A 
ATOM     17  C   UNL     1       2.327   6.851  -6.304  0.00  0.00    +0.000 A 
ATOM     18  C   UNL     1       1.085   6.176  -6.351  0.00  0.00    +0.000 A 
ATOM     19  O   UNL     1       3.628   8.623  -7.372  0.00  0.00    +0.000 OA
ATOM     20  C   UNL     1       3.404   9.384  -8.551  0.00  0.00    +0.000 C 
ATOM     21  O   UNL     1       2.021   9.192  -8.934  0.00  0.00    +0.000 OA
ENDROOT
BRANCH   1  23
ATOM     22  C   UNL     1       0.987   0.051   0.085  0.00  0.00    +0.000 C 
ATOM     23  O   UNL     1       0.513   0.199  -1.245  0.00  0.00    +0.000 OA
ENDBRANCH   1  23
BRANCH  10  24
ATOM     24  O   UNL     1      -1.425   1.331  -2.802  0.00  0.00    +0.000 OA
ATOM     25  C   UNL     1      -1.745   0.263  -1.922  0.00  0.00    +0.000 C 
ENDBRANCH  10  24
TORSDOF 2
