
 OpenBabel03132514253D

 43 47  0  0  0  0  0  0  0  0999 V2000
    0.9741    0.0511    0.0820 C   0  0  0  0  0  0  0  0  0  0  0  0
    0.5007   -1.2198    0.5030 O   0  0  0  0  0  0  0  0  0  0  0  0
    0.8438   -2.3847   -0.2330 C   0  0  0  0  0  0  0  0  0  0  0  0
    2.1845   -2.4995   -0.6218 C   0  0  0  0  0  0  0  0  0  0  0  0
    2.6688   -3.6382   -1.1921 C   0  0  0  0  0  0  0  0  0  0  0  0
    1.8157   -4.7058   -1.4524 C   0  0  0  0  0  0  0  0  0  0  0  0
    2.2238   -5.9122   -2.0787 C   0  0  0  0  0  0  0  0  0  0  0  0
    1.3627   -6.9239   -2.3393 C   0  0  0  0  0  0  0  0  0  0  0  0
    0.0411   -6.7781   -1.9808 N   0  3  0  0  0  0  0  0  0  0  0  0
   -0.4005   -5.6810   -1.3577 C   0  0  0  0  0  0  0  0  0  0  0  0
    0.4515   -4.6046   -1.0675 C   0  0  0  0  0  0  0  0  0  0  0  0
   -0.0206   -3.4262   -0.4418 C   0  0  0  0  0  0  0  0  0  0  0  0
   -1.3771   -3.3248   -0.0345 O   0  0  0  0  0  0  0  0  0  0  0  0
   -1.8434   -2.1393    0.5927 C   0  0  0  0  0  0  0  0  0  0  0  0
   -0.9533   -7.8196   -2.3246 C   0  0  0  0  0  0  0  0  0  0  0  0
   -0.4117   -9.1639   -2.2758 C   0  0  0  0  0  0  0  0  0  0  0  0
    0.9078   -9.2819   -2.9927 C   0  0  0  0  0  0  0  0  0  0  0  0
    1.2837  -10.4887   -3.5606 C   0  0  0  0  0  0  0  0  0  0  0  0
    2.5440  -10.5634   -4.1048 C   0  0  0  0  0  0  0  0  0  0  0  0
    3.4119   -9.5018   -4.0926 C   0  0  0  0  0  0  0  0  0  0  0  0
    3.0558   -8.2984   -3.5605 C   0  0  0  0  0  0  0  0  0  0  0  0
    1.7644   -8.1988   -2.9929 C   0  0  0  0  0  0  0  0  0  0  0  0
    4.5708   -9.8345   -4.7082 O   0  0  0  0  0  0  0  0  0  0  0  0
    4.4880  -11.2283   -4.9707 C   0  0  0  0  0  0  0  0  0  0  0  0
    3.1197  -11.6341   -4.7263 O   0  0  0  0  0  0  0  0  0  0  0  0
    0.6174    0.8046    0.7527 H   0  0  0  0  0  0  0  0  0  0  0  0
    0.6174    0.2551   -0.9060 H   0  0  0  0  0  0  0  0  0  0  0  0
    2.0441    0.0511    0.0820 H   0  0  0  0  0  0  0  0  0  0  0  0
    2.8450   -1.6721   -0.4670 H   0  0  0  0  0  0  0  0  0  0  0  0
    3.7071   -3.7114   -1.4402 H   0  0  0  0  0  0  0  0  0  0  0  0
    3.2511   -6.0265   -2.3554 H   0  0  0  0  0  0  0  0  0  0  0  0
   -1.4302   -5.6222   -1.0729 H   0  0  0  0  0  0  0  0  0  0  0  0
   -1.2900   -1.9706    1.4928 H   0  0  0  0  0  0  0  0  0  0  0  0
   -1.7095   -1.3093   -0.0692 H   0  0  0  0  0  0  0  0  0  0  0  0
   -2.8821   -2.2446    0.8270 H   0  0  0  0  0  0  0  0  0  0  0  0
   -1.7358   -7.7651   -1.5969 H   0  0  0  0  0  0  0  0  0  0  0  0
   -1.3124   -7.6333   -3.3152 H   0  0  0  0  0  0  0  0  0  0  0  0
   -0.2457   -9.4098   -1.2477 H   0  0  0  0  0  0  0  0  0  0  0  0
   -1.1113   -9.8322   -2.7328 H   0  0  0  0  0  0  0  0  0  0  0  0
    0.6203  -11.3281   -3.5750 H   0  0  0  0  0  0  0  0  0  0  0  0
    3.7255   -7.4639   -3.5718 H   0  0  0  0  0  0  0  0  0  0  0  0
    5.1615  -11.7720   -4.3417 H   0  0  0  0  0  0  0  0  0  0  0  0
    4.7515  -11.4250   -5.9889 H   0  0  0  0  0  0  0  0  0  0  0  0
  1  2  1  0  0  0  0
  1 26  1  0  0  0  0
  1 27  1  0  0  0  0
  1 28  1  0  0  0  0
  2  3  1  0  0  0  0
  3  4  1  0  0  0  0
  3 12  2  0  0  0  0
  4  5  2  0  0  0  0
  4 29  1  0  0  0  0
  5  6  1  0  0  0  0
  5 30  1  0  0  0  0
  6  7  1  0  0  0  0
  6 11  2  0  0  0  0
  7  8  2  0  0  0  0
  7 31  1  0  0  0  0
  8  9  1  0  0  0  0
  8 22  1  0  0  0  0
  9 10  2  0  0  0  0
  9 15  1  0  0  0  0
 10 11  1  0  0  0  0
 10 32  1  0  0  0  0
 11 12  1  0  0  0  0
 12 13  1  0  0  0  0
 13 14  1  0  0  0  0
 14 33  1  0  0  0  0
 14 34  1  0  0  0  0
 14 35  1  0  0  0  0
 15 16  1  0  0  0  0
 15 36  1  0  0  0  0
 15 37  1  0  0  0  0
 16 17  1  0  0  0  0
 16 38  1  0  0  0  0
 16 39  1  0  0  0  0
 17 18  1  0  0  0  0
 17 22  2  0  0  0  0
 18 19  2  0  0  0  0
 18 40  1  0  0  0  0
 19 20  1  0  0  0  0
 19 25  1  0  0  0  0
 20 21  2  0  0  0  0
 20 23  1  0  0  0  0
 21 22  1  0  0  0  0
 21 41  1  0  0  0  0
 23 24  1  0  0  0  0
 24 25  1  0  0  0  0
 24 42  1  0  0  0  0
 24 43  1  0  0  0  0
M  CHG  1   9   1
M  END
