
 OpenBabel03132512093D

 23 22  0  0  0  0  0  0  0  0999 V2000
    1.0095   -0.0976   -0.0196 C   0  0  0  0  0  0  0  0  0  0  0  0
    0.4062   -1.7500   -0.4456 S   0  0  0  0  0  0  0  0  0  0  0  0
    1.0095   -2.2073   -2.0897 C   0  0  0  0  0  0  0  0  0  0  0  0
    0.5028   -1.2036   -3.1126 C   0  0  0  0  0  0  0  0  0  0  0  0
    1.0095    0.1841   -2.7548 C   0  0  0  0  0  0  0  0  0  0  0  0
    2.5295    0.1841   -2.7548 C   0  0  0  0  0  0  0  0  0  0  0  0
    3.0362   -0.1999   -4.1355 C   0  0  0  0  0  0  0  0  0  0  0  0
    2.5462    0.7708   -5.1247 N   0  0  0  0  0  0  0  0  0  0  0  0
    1.2527    0.9392   -5.2963 C   0  0  0  0  0  0  0  0  0  0  0  0
   -0.3400    1.1465   -5.5076 S   0  0  0  0  0  0  0  0  0  0  0  0
    0.6528    0.1727    0.9523 H   0  0  0  0  0  0  0  0  0  0  0  0
    0.6528    0.6089   -0.7396 H   0  0  0  0  0  0  0  0  0  0  0  0
    2.0795   -0.0976   -0.0196 H   0  0  0  0  0  0  0  0  0  0  0  0
    2.0795   -2.2073   -2.0897 H   0  0  0  0  0  0  0  0  0  0  0  0
    0.6528   -3.1841   -2.3416 H   0  0  0  0  0  0  0  0  0  0  0  0
    0.8595   -1.4739   -4.0845 H   0  0  0  0  0  0  0  0  0  0  0  0
   -0.5672   -1.2036   -3.1126 H   0  0  0  0  0  0  0  0  0  0  0  0
    0.6528    0.8907   -3.4748 H   0  0  0  0  0  0  0  0  0  0  0  0
    0.6528    0.4544   -1.7829 H   0  0  0  0  0  0  0  0  0  0  0  0
    2.8862    1.1610   -2.5029 H   0  0  0  0  0  0  0  0  0  0  0  0
    2.8862   -0.5225   -2.0347 H   0  0  0  0  0  0  0  0  0  0  0  0
    4.1062   -0.1999   -4.1355 H   0  0  0  0  0  0  0  0  0  0  0  0
    2.6795   -1.1767   -4.3873 H   0  0  0  0  0  0  0  0  0  0  0  0
  1  2  1  0  0  0  0
  1 11  1  0  0  0  0
  1 12  1  0  0  0  0
  1 13  1  0  0  0  0
  2  3  1  0  0  0  0
  3  4  1  0  0  0  0
  3 14  1  0  0  0  0
  3 15  1  0  0  0  0
  4  5  1  0  0  0  0
  4 16  1  0  0  0  0
  4 17  1  0  0  0  0
  5  6  1  0  0  0  0
  5 18  1  0  0  0  0
  5 19  1  0  0  0  0
  6  7  1  0  0  0  0
  6 20  1  0  0  0  0
  6 21  1  0  0  0  0
  7  8  1  0  0  0  0
  7 22  1  0  0  0  0
  7 23  1  0  0  0  0
  8  9  2  0  0  0  0
  9 10  2  0  0  0  0
M  END
