REMARK  Name = 
REMARK  7 active torsions:
REMARK  status: ('A' for Active; 'I' for Inactive)
REMARK    1  A    between atoms: C_1  and  S_2
REMARK    2  A    between atoms: S_2  and  C_3
REMARK    3  A    between atoms: C_3  and  C_4
REMARK    4  A    between atoms: C_4  and  C_5
REMARK    5  A    between atoms: C_5  and  C_6
REMARK    6  A    between atoms: C_6  and  C_7
REMARK    7  A    between atoms: C_7  and  N_8
REMARK                            x       y       z     vdW  Elec       q    Type
REMARK                         _______ _______ _______ _____ _____    ______ ____
ROOT
ATOM      1  C   UNL     1       1.089  -2.097  -1.714  0.00  0.00    +0.000 C 
ENDROOT
BRANCH   1   2
ATOM      2  C   UNL     1       0.583  -3.153  -0.745  0.00  0.00    +0.000 C 
BRANCH   2   3
ATOM      3  C   UNL     1       1.089  -2.842   0.654  0.00  0.00    +0.000 C 
BRANCH   3   5
ATOM      4  C   UNL     1       1.089   0.043   0.012  0.00  0.00    +0.000 C 
ATOM      5  S   UNL     1       0.486  -1.214   1.166  0.00  0.00    +0.000 S 
ENDBRANCH   3   5
ENDBRANCH   2   3
ENDBRANCH   1   2
BRANCH   1   6
ATOM      6  C   UNL     1       2.610  -2.097  -1.714  0.00  0.00    +0.000 C 
BRANCH   6   7
ATOM      7  C   UNL     1       3.116  -3.464  -2.144  0.00  0.00    +0.000 C 
BRANCH   7   8
ATOM      8  N   UNL     1       2.626  -3.765  -3.497  0.00  0.00    +0.000 NA
ATOM      9  C   UNL     1       1.333  -3.817  -3.732  0.00  0.00    +0.000 C 
ATOM     10  S   UNL     1      -0.260  -3.882  -4.021  0.00  0.00    +0.000 S 
ENDBRANCH   7   8
ENDBRANCH   6   7
ENDBRANCH   1   6
TORSDOF 6
