REMARK  Name = 
REMARK  6 active torsions:
REMARK  status: ('A' for Active; 'I' for Inactive)
REMARK    1  A    between atoms: C_1  and  C_2
REMARK    2  A    between atoms: C_2  and  C_3
REMARK    3  A    between atoms: C_2  and  O_4
REMARK    4  A    between atoms: C_2  and  C_5
REMARK    5  A    between atoms: C_5  and  C_6
REMARK    6  A    between atoms: C_6  and  O_8
REMARK                            x       y       z     vdW  Elec       q    Type
REMARK                         _______ _______ _______ _____ _____    ______ ____
ROOT
ATOM      1  C   UNL     1       0.934  -0.075  -0.004  0.00  0.00    +0.000 C 
ATOM      2  C   UNL     1       0.428  -0.389  -1.402  0.00  0.00    +0.000 C 
ATOM      3  C   UNL     1       0.934  -1.756  -1.830  0.00  0.00    +0.000 C 
ENDROOT
BRANCH   2   4
ATOM      4  O   UNL     1      -0.992  -0.389  -1.402  0.00  0.00    +0.000 OA
ATOM      5  H   UNL     1      -1.326  -1.082  -0.763  0.00  0.00    +0.000 HD
ENDBRANCH   2   4
BRANCH   2   6
ATOM      6  C   UNL     1       0.934   0.666  -2.373  0.00  0.00    +0.000 C 
BRANCH   6   7
ATOM      7  C   UNL     1       0.428   2.033  -1.945  0.00  0.00    +0.000 C 
ATOM      8  O   UNL     1       1.254   2.955  -1.657  0.00  0.00    +0.000 OA
BRANCH   7   9
ATOM      9  O   UNL     1      -0.969   2.281  -1.867  0.00  0.00    +0.000 OA
ATOM     10  H   UNL     1      -1.302   3.181  -1.586  0.00  0.00    +0.000 HD
ENDBRANCH   7   9
ENDBRANCH   6   7
ENDBRANCH   2   6
TORSDOF 4
