
 OpenBabel03132514253D

 39 41  0  0  0  0  0  0  0  0999 V2000
    0.9578    0.0654   -0.0628 C   0  0  0  0  0  0  0  0  0  0  0  0
    0.4512    0.0810   -1.4957 C   0  0  0  0  0  0  0  0  0  0  0  0
    0.5311    1.6760   -2.1418 C   0  0  0  0  0  0  0  0  0  0  0  0
    1.5994    1.4822   -3.4803 C   0  0  0  0  0  0  0  0  0  0  0  0
    2.0518   -0.2269   -3.4963 C   0  0  0  0  0  0  0  0  0  0  0  0
    1.4886   -0.9131   -2.5249 C   0  0  0  0  0  0  0  0  0  0  0  0
    1.7316   -2.6597   -2.2527 C   0  0  0  0  0  0  0  0  0  0  0  0
    0.9069   -3.4011   -3.6960 C   0  0  0  0  0  0  0  0  0  0  0  0
    1.7854   -3.2541   -4.8969 C   0  0  0  0  0  0  0  0  0  0  0  0
    2.0510   -2.0038   -5.6734 C   0  0  0  0  0  0  0  0  0  0  0  0
    3.1554   -0.9223   -4.7136 C   0  0  0  0  0  0  0  0  0  0  0  0
    4.2685   -1.7200   -4.0539 C   0  0  0  0  0  0  0  0  0  0  0  0
    0.6504   -4.8759   -3.4321 C   0  0  0  0  0  0  0  0  0  0  0  0
   -0.2397   -5.0244   -2.2089 C   0  0  0  0  0  0  0  0  0  0  0  0
   -0.0383   -5.4941   -4.6379 C   0  0  0  0  0  0  0  0  0  0  0  0
    0.6012   -0.8136    0.4321 H   0  0  0  0  0  0  0  0  0  0  0  0
    0.6012    0.9336    0.4511 H   0  0  0  0  0  0  0  0  0  0  0  0
    2.0278    0.0654   -0.0628 H   0  0  0  0  0  0  0  0  0  0  0  0
   -0.5538   -0.2861   -1.4806 H   0  0  0  0  0  0  0  0  0  0  0  0
    0.8619    2.4071   -1.4340 H   0  0  0  0  0  0  0  0  0  0  0  0
   -0.4329    2.0125   -2.4618 H   0  0  0  0  0  0  0  0  0  0  0  0
    2.4578    2.1148   -3.3923 H   0  0  0  0  0  0  0  0  0  0  0  0
    1.1049    1.7448   -4.3921 H   0  0  0  0  0  0  0  0  0  0  0  0
    1.3441   -3.0037   -1.3165 H   0  0  0  0  0  0  0  0  0  0  0  0
    2.7724   -2.9070   -2.2326 H   0  0  0  0  0  0  0  0  0  0  0  0
   -0.0247   -2.9046   -3.8706 H   0  0  0  0  0  0  0  0  0  0  0  0
    2.7392   -3.3681   -4.4256 H   0  0  0  0  0  0  0  0  0  0  0  0
    1.3899   -3.9438   -5.6131 H   0  0  0  0  0  0  0  0  0  0  0  0
    2.5144   -2.2525   -6.6053 H   0  0  0  0  0  0  0  0  0  0  0  0
    1.1278   -1.4963   -5.8603 H   0  0  0  0  0  0  0  0  0  0  0  0
    3.8434   -2.4465   -3.3934 H   0  0  0  0  0  0  0  0  0  0  0  0
    4.8456   -2.2161   -4.8060 H   0  0  0  0  0  0  0  0  0  0  0  0
    4.9000   -1.0588   -3.4981 H   0  0  0  0  0  0  0  0  0  0  0  0
   -1.1705   -4.5259   -2.3825 H   0  0  0  0  0  0  0  0  0  0  0  0
   -0.4203   -6.0625   -2.0232 H   0  0  0  0  0  0  0  0  0  0  0  0
    0.2451   -4.5892   -1.3601 H   0  0  0  0  0  0  0  0  0  0  0  0
   -0.9690   -4.9956   -4.8115 H   0  0  0  0  0  0  0  0  0  0  0  0
    0.5883   -5.3895   -5.4989 H   0  0  0  0  0  0  0  0  0  0  0  0
   -0.2188   -6.5322   -4.4521 H   0  0  0  0  0  0  0  0  0  0  0  0
  1  2  1  0  0  0  0
  1 16  1  0  0  0  0
  1 17  1  0  0  0  0
  1 18  1  0  0  0  0
  2  3  1  0  0  0  0
  2  6  1  0  0  0  0
  2 19  1  0  0  0  0
  3  4  1  0  0  0  0
  3 20  1  0  0  0  0
  3 21  1  0  0  0  0
  4  5  1  0  0  0  0
  4 22  1  0  0  0  0
  4 23  1  0  0  0  0
  5  6  2  0  0  0  0
  5 11  1  0  0  0  0
  6  7  1  0  0  0  0
  7  8  1  0  0  0  0
  7 24  1  0  0  0  0
  7 25  1  0  0  0  0
  8  9  1  0  0  0  0
  8 13  1  0  0  0  0
  8 26  1  0  0  0  0
  9 10  1  0  0  0  0
  9 27  1  0  0  0  0
  9 28  1  0  0  0  0
 10 11  1  0  0  0  0
 10 29  1  0  0  0  0
 10 30  1  0  0  0  0
 11 12  1  0  0  0  0
 11 13  1  0  0  0  0
 12 31  1  0  0  0  0
 12 32  1  0  0  0  0
 12 33  1  0  0  0  0
 13 14  1  0  0  0  0
 13 15  1  0  0  0  0
 14 34  1  0  0  0  0
 14 35  1  0  0  0  0
 14 36  1  0  0  0  0
 15 37  1  0  0  0  0
 15 38  1  0  0  0  0
 15 39  1  0  0  0  0
M  END
