REMARK  Name = 
REMARK  6 active torsions:
REMARK  status: ('A' for Active; 'I' for Inactive)
REMARK    1  A    between atoms: C_1  and  C_2
REMARK    2  A    between atoms: C_2  and  C_3
REMARK    3  A    between atoms: C_2  and  O_4
REMARK    4  A    between atoms: C_2  and  C_5
REMARK    5  A    between atoms: C_5  and  C_6
REMARK    6  A    between atoms: C_6  and  O_8
REMARK                            x       y       z     vdW  Elec       q    Type
REMARK                         _______ _______ _______ _____ _____    ______ ____
ROOT
ATOM      1  C   UNL     1       1.024  -0.095   0.021  0.00  0.00    +0.000 C 
ATOM      2  C   UNL     1       0.517   0.247   1.412  0.00  0.00    +0.000 C 
ATOM      3  C   UNL     1       1.024   1.624   1.812  0.00  0.00    +0.000 C 
ENDROOT
BRANCH   2   4
ATOM      4  O   UNL     1      -0.902   0.247   1.412  0.00  0.00    +0.000 OA
ATOM      5  H   UNL     1      -1.236   0.928   0.760  0.00  0.00    +0.000 HD
ENDBRANCH   2   4
BRANCH   2   6
ATOM      6  C   UNL     1       1.024  -0.787   2.405  0.00  0.00    +0.000 C 
BRANCH   6   7
ATOM      7  C   UNL     1       0.517  -2.163   2.005  0.00  0.00    +0.000 C 
ATOM      8  O   UNL     1       1.343  -3.091   1.736  0.00  0.00    +0.000 OA
BRANCH   7   9
ATOM      9  O   UNL     1      -0.879  -2.412   1.933  0.00  0.00    +0.000 OA
ATOM     10  H   UNL     1      -1.212  -3.318   1.670  0.00  0.00    +0.000 HD
ENDBRANCH   7   9
ENDBRANCH   6   7
ENDBRANCH   2   6
TORSDOF 4
