
 OpenBabel03132514253D

 32 34  0  0  0  0  0  0  0  0999 V2000
    0.9187   -0.0554    0.0180 C   0  0  0  0  0  0  0  0  0  0  0  0
    0.4120   -0.4087   -1.3709 C   0  0  0  0  0  0  0  0  0  0  0  0
    1.4451    0.1027   -2.3617 C   0  0  0  0  0  0  0  0  0  0  0  0
   -0.9356    0.2546   -1.6852 C   0  0  0  0  0  0  0  0  0  0  0  0
   -1.2925   -0.0550   -3.1412 C   0  0  0  0  0  0  0  0  0  0  0  0
   -1.1080   -1.5275   -3.4081 C   0  0  0  0  0  0  0  0  0  0  0  0
   -0.3577   -2.3091   -2.5850 C   0  0  0  0  0  0  0  0  0  0  0  0
    0.2503   -1.8231   -1.4816 O   0  0  0  0  0  0  0  0  0  0  0  0
   -0.2142   -3.7368   -2.9114 C   0  0  0  0  0  0  0  0  0  0  0  0
    0.5489   -4.5861   -2.1068 C   0  0  0  0  0  0  0  0  0  0  0  0
    0.6618   -5.9085   -2.4346 C   0  0  0  0  0  0  0  0  0  0  0  0
    0.0255   -6.4130   -3.5607 C   0  0  0  0  0  0  0  0  0  0  0  0
   -0.7308   -5.5914   -4.3680 C   0  0  0  0  0  0  0  0  0  0  0  0
   -0.8580   -4.2424   -4.0523 C   0  0  0  0  0  0  0  0  0  0  0  0
   -1.6078   -3.3947   -4.8419 C   0  0  0  0  0  0  0  0  0  0  0  0
   -2.1916   -3.8535   -5.8733 O   0  0  0  0  0  0  0  0  0  0  0  0
   -1.7301   -2.0931   -4.5375 C   0  0  0  0  0  0  0  0  0  0  0  0
   -2.4296   -1.3477   -5.2926 O   0  0  0  0  0  0  0  0  0  0  0  0
    0.5621   -0.7777    0.7222 H   0  0  0  0  0  0  0  0  0  0  0  0
    0.5621    0.9156    0.2914 H   0  0  0  0  0  0  0  0  0  0  0  0
    1.9887   -0.0554    0.0180 H   0  0  0  0  0  0  0  0  0  0  0  0
    1.5483    1.1623   -2.2543 H   0  0  0  0  0  0  0  0  0  0  0  0
    2.3865   -0.3686   -2.1706 H   0  0  0  0  0  0  0  0  0  0  0  0
    1.1276   -0.1256   -3.3577 H   0  0  0  0  0  0  0  0  0  0  0  0
   -1.6941   -0.1209   -1.0307 H   0  0  0  0  0  0  0  0  0  0  0  0
   -0.8591    1.3130   -1.5482 H   0  0  0  0  0  0  0  0  0  0  0  0
   -2.3130    0.2122   -3.3202 H   0  0  0  0  0  0  0  0  0  0  0  0
   -0.6544    0.5068   -3.7909 H   0  0  0  0  0  0  0  0  0  0  0  0
    1.0428   -4.2035   -1.2381 H   0  0  0  0  0  0  0  0  0  0  0  0
    1.2453   -6.5600   -1.8182 H   0  0  0  0  0  0  0  0  0  0  0  0
    0.1235   -7.4503   -3.8042 H   0  0  0  0  0  0  0  0  0  0  0  0
   -1.2181   -5.9891   -5.2336 H   0  0  0  0  0  0  0  0  0  0  0  0
  1  2  1  0  0  0  0
  1 19  1  0  0  0  0
  1 20  1  0  0  0  0
  1 21  1  0  0  0  0
  2  3  1  0  0  0  0
  2  4  1  0  0  0  0
  2  8  1  0  0  0  0
  3 22  1  0  0  0  0
  3 23  1  0  0  0  0
  3 24  1  0  0  0  0
  4  5  1  0  0  0  0
  4 25  1  0  0  0  0
  4 26  1  0  0  0  0
  5  6  1  0  0  0  0
  5 27  1  0  0  0  0
  5 28  1  0  0  0  0
  6  7  2  0  0  0  0
  6 17  1  0  0  0  0
  7  8  1  0  0  0  0
  7  9  1  0  0  0  0
  9 10  1  0  0  0  0
  9 14  2  0  0  0  0
 10 11  2  0  0  0  0
 10 29  1  0  0  0  0
 11 12  1  0  0  0  0
 11 30  1  0  0  0  0
 12 13  2  0  0  0  0
 12 31  1  0  0  0  0
 13 14  1  0  0  0  0
 13 32  1  0  0  0  0
 14 15  1  0  0  0  0
 15 16  2  0  0  0  0
 15 17  1  0  0  0  0
 17 18  2  0  0  0  0
M  END
