REMARK  Name = 
REMARK  2 active torsions:
REMARK  status: ('A' for Active; 'I' for Inactive)
REMARK    1  A    between atoms: C_1  and  C_2
REMARK    2  A    between atoms: C_2  and  C_3
REMARK                            x       y       z     vdW  Elec       q    Type
REMARK                         _______ _______ _______ _____ _____    ______ ____
ROOT
ATOM      1  C   UNL     1       1.018  -0.060   0.078  0.00  0.00    +0.000 C 
ATOM      2  C   UNL     1       0.512   0.797   1.226  0.00  0.00    +0.000 C 
ATOM      3  C   UNL     1      -0.997   0.979   1.213  0.00  0.00    +0.000 C 
ATOM      4  C   UNL     1       1.251   2.136   1.101  0.00  0.00    +0.000 C 
ATOM      5  C   UNL     1       0.817   3.032   2.263  0.00  0.00    +0.000 C 
ATOM      6  C   UNL     1       0.891   2.260   3.556  0.00  0.00    +0.000 C 
ATOM      7  C   UNL     1       0.936   0.900   3.569  0.00  0.00    +0.000 C 
ATOM      8  O   UNL     1       0.933   0.166   2.436  0.00  0.00    +0.000 OA
ATOM      9  C   UNL     1       0.999   0.212   4.868  0.00  0.00    +0.000 A 
ATOM     10  C   UNL     1       1.041  -1.182   4.943  0.00  0.00    +0.000 A 
ATOM     11  C   UNL     1       1.102  -1.793   6.164  0.00  0.00    +0.000 A 
ATOM     12  C   UNL     1       1.120  -1.039   7.330  0.00  0.00    +0.000 A 
ATOM     13  C   UNL     1       1.078   0.337   7.277  0.00  0.00    +0.000 A 
ATOM     14  C   UNL     1       1.016   0.978   6.044  0.00  0.00    +0.000 A 
ATOM     15  C   UNL     1       0.971   2.355   5.960  0.00  0.00    +0.000 C 
ATOM     16  O   UNL     1       0.988   3.048   7.025  0.00  0.00    +0.000 OA
ATOM     17  C   UNL     1       0.911   2.974   4.770  0.00  0.00    +0.000 C 
ATOM     18  O   UNL     1       0.871   4.243   4.738  0.00  0.00    +0.000 OA
ENDROOT
TORSDOF 0
