
 OpenBabel03132512093D

 18 17  0  0  0  0  0  0  0  0999 V2000
    1.0242   -0.0948    0.0208 C   0  0  0  0  0  0  0  0  0  0  0  0
    0.5175    0.2474    1.4124 C   0  0  0  0  0  0  0  0  0  0  0  0
    1.0242    1.6237    1.8118 C   0  0  0  0  0  0  0  0  0  0  0  0
   -0.9025    0.2474    1.4124 O   0  0  0  0  0  0  0  0  0  0  0  0
    1.0242   -0.7867    2.4045 C   0  0  0  0  0  0  0  0  0  0  0  0
    0.5175   -2.1629    2.0051 C   0  0  0  0  0  0  0  0  0  0  0  0
    1.3434   -3.0906    1.7358 O   0  0  0  0  0  0  0  0  0  0  0  0
   -0.8786   -2.4121    1.9328 O   0  0  0  0  0  0  0  0  0  0  0  0
    0.6675    0.6331   -0.6777 H   0  0  0  0  0  0  0  0  0  0  0  0
    0.6675   -1.0636   -0.2604 H   0  0  0  0  0  0  0  0  0  0  0  0
    2.0942   -0.0948    0.0208 H   0  0  0  0  0  0  0  0  0  0  0  0
    0.6675    2.3516    1.1134 H   0  0  0  0  0  0  0  0  0  0  0  0
    0.6675    1.8646    2.7914 H   0  0  0  0  0  0  0  0  0  0  0  0
    2.0942    1.6237    1.8118 H   0  0  0  0  0  0  0  0  0  0  0  0
   -1.2358    0.9277    0.7596 H   0  0  0  0  0  0  0  0  0  0  0  0
    2.0942   -0.7867    2.4045 H   0  0  0  0  0  0  0  0  0  0  0  0
    0.6675   -0.5458    3.3842 H   0  0  0  0  0  0  0  0  0  0  0  0
   -1.2119   -3.3176    1.6700 H   0  0  0  0  0  0  0  0  0  0  0  0
  1  2  1  0  0  0  0
  1  9  1  0  0  0  0
  1 10  1  0  0  0  0
  1 11  1  0  0  0  0
  2  3  1  0  0  0  0
  2  4  1  0  0  0  0
  2  5  1  0  0  0  0
  3 12  1  0  0  0  0
  3 13  1  0  0  0  0
  3 14  1  0  0  0  0
  4 15  1  0  0  0  0
  5  6  1  0  0  0  0
  5 16  1  0  0  0  0
  5 17  1  0  0  0  0
  6  7  2  0  0  0  0
  6  8  1  0  0  0  0
  8 18  1  0  0  0  0
M  END
