REMARK  Name = 
REMARK  2 active torsions:
REMARK  status: ('A' for Active; 'I' for Inactive)
REMARK    1  A    between atoms: C_1  and  C_2
REMARK    2  A    between atoms: C_2  and  C_3
REMARK                            x       y       z     vdW  Elec       q    Type
REMARK                         _______ _______ _______ _____ _____    ______ ____
ROOT
ATOM      1  C   UNL     1       0.919  -0.055   0.018  0.00  0.00    +0.000 C 
ATOM      2  C   UNL     1       0.412  -0.409  -1.371  0.00  0.00    +0.000 C 
ATOM      3  C   UNL     1       1.445   0.103  -2.362  0.00  0.00    +0.000 C 
ATOM      4  C   UNL     1      -0.936   0.255  -1.685  0.00  0.00    +0.000 C 
ATOM      5  C   UNL     1      -1.292  -0.055  -3.141  0.00  0.00    +0.000 C 
ATOM      6  C   UNL     1      -1.108  -1.528  -3.408  0.00  0.00    +0.000 C 
ATOM      7  C   UNL     1      -0.358  -2.309  -2.585  0.00  0.00    +0.000 C 
ATOM      8  O   UNL     1       0.250  -1.823  -1.482  0.00  0.00    +0.000 OA
ATOM      9  C   UNL     1      -0.214  -3.737  -2.911  0.00  0.00    +0.000 A 
ATOM     10  C   UNL     1       0.549  -4.586  -2.107  0.00  0.00    +0.000 A 
ATOM     11  C   UNL     1       0.662  -5.909  -2.435  0.00  0.00    +0.000 A 
ATOM     12  C   UNL     1       0.025  -6.413  -3.561  0.00  0.00    +0.000 A 
ATOM     13  C   UNL     1      -0.731  -5.591  -4.368  0.00  0.00    +0.000 A 
ATOM     14  C   UNL     1      -0.858  -4.242  -4.052  0.00  0.00    +0.000 A 
ATOM     15  C   UNL     1      -1.608  -3.395  -4.842  0.00  0.00    +0.000 C 
ATOM     16  O   UNL     1      -2.192  -3.853  -5.873  0.00  0.00    +0.000 OA
ATOM     17  C   UNL     1      -1.730  -2.093  -4.537  0.00  0.00    +0.000 C 
ATOM     18  O   UNL     1      -2.430  -1.348  -5.293  0.00  0.00    +0.000 OA
ENDROOT
TORSDOF 0
