
 OpenBabel03132512093D

 39 41  0  0  0  0  0  0  0  0999 V2000
    0.9370   -0.0328    0.0704 C   0  0  0  0  0  0  0  0  0  0  0  0
    0.4304    0.2468    1.4760 C   0  0  0  0  0  0  0  0  0  0  0  0
    0.7034    1.8973    1.8872 C   0  0  0  0  0  0  0  0  0  0  0  0
   -0.8919    2.4735    2.1925 C   0  0  0  0  0  0  0  0  0  0  0  0
   -1.9649    1.0930    1.9300 C   0  0  0  0  0  0  0  0  0  0  0  0
   -1.3170    0.0023    1.5800 C   0  0  0  0  0  0  0  0  0  0  0  0
   -2.0954   -1.5667    1.2392 C   0  0  0  0  0  0  0  0  0  0  0  0
   -2.7104   -2.0647    2.8782 C   0  0  0  0  0  0  0  0  0  0  0  0
   -3.9454   -1.2861    3.2006 C   0  0  0  0  0  0  0  0  0  0  0  0
   -4.0274    0.1550    3.5922 C   0  0  0  0  0  0  0  0  0  0  0  0
   -3.7351    1.1945    2.1278 C   0  0  0  0  0  0  0  0  0  0  0  0
   -4.4566    0.6423    0.9092 C   0  0  0  0  0  0  0  0  0  0  0  0
   -3.0344   -3.5498    2.8691 C   0  0  0  0  0  0  0  0  0  0  0  0
   -1.7791   -4.3403    2.5378 C   0  0  0  0  0  0  0  0  0  0  0  0
   -3.5479   -3.9647    4.2383 C   0  0  0  0  0  0  0  0  0  0  0  0
    0.5804    0.7256   -0.5948 H   0  0  0  0  0  0  0  0  0  0  0  0
    0.5804   -0.9881   -0.2538 H   0  0  0  0  0  0  0  0  0  0  0  0
    2.0070   -0.0328    0.0704 H   0  0  0  0  0  0  0  0  0  0  0  0
    0.9506   -0.4188    2.1326 H   0  0  0  0  0  0  0  0  0  0  0  0
    1.2176    2.4472    1.1268 H   0  0  0  0  0  0  0  0  0  0  0  0
    1.3187    1.9822    2.7584 H   0  0  0  0  0  0  0  0  0  0  0  0
   -1.1427    3.2931    1.5520 H   0  0  0  0  0  0  0  0  0  0  0  0
   -0.9748    2.8228    3.2005 H   0  0  0  0  0  0  0  0  0  0  0  0
   -1.4359   -2.2827    0.7951 H   0  0  0  0  0  0  0  0  0  0  0  0
   -2.8992   -1.4562    0.5417 H   0  0  0  0  0  0  0  0  0  0  0  0
   -1.9609   -1.8697    3.6166 H   0  0  0  0  0  0  0  0  0  0  0  0
   -4.3666   -1.2203    2.2191 H   0  0  0  0  0  0  0  0  0  0  0  0
   -4.4023   -1.8173    4.0092 H   0  0  0  0  0  0  0  0  0  0  0  0
   -4.9982    0.3631    3.9912 H   0  0  0  0  0  0  0  0  0  0  0  0
   -3.2860    0.3664    4.3342 H   0  0  0  0  0  0  0  0  0  0  0  0
   -4.1025   -0.3460    0.7025 H   0  0  0  0  0  0  0  0  0  0  0  0
   -5.5088    0.6113    1.1013 H   0  0  0  0  0  0  0  0  0  0  0  0
   -4.2664    1.2729    0.0659 H   0  0  0  0  0  0  0  0  0  0  0  0
   -1.0288   -4.1435    3.2748 H   0  0  0  0  0  0  0  0  0  0  0  0
   -2.0073   -5.3856    2.5314 H   0  0  0  0  0  0  0  0  0  0  0  0
   -1.4177   -4.0481    1.5740 H   0  0  0  0  0  0  0  0  0  0  0  0
   -2.7976   -3.7679    4.9753 H   0  0  0  0  0  0  0  0  0  0  0  0
   -4.4316   -3.4083    4.4715 H   0  0  0  0  0  0  0  0  0  0  0  0
   -3.7760   -5.0101    4.2318 H   0  0  0  0  0  0  0  0  0  0  0  0
  1  2  1  0  0  0  0
  1 16  1  0  0  0  0
  1 17  1  0  0  0  0
  1 18  1  0  0  0  0
  2  3  1  0  0  0  0
  2  6  1  0  0  0  0
  2 19  1  0  0  0  0
  3  4  1  0  0  0  0
  3 20  1  0  0  0  0
  3 21  1  0  0  0  0
  4  5  1  0  0  0  0
  4 22  1  0  0  0  0
  4 23  1  0  0  0  0
  5  6  2  0  0  0  0
  5 11  1  0  0  0  0
  6  7  1  0  0  0  0
  7  8  1  0  0  0  0
  7 24  1  0  0  0  0
  7 25  1  0  0  0  0
  8  9  1  0  0  0  0
  8 13  1  0  0  0  0
  8 26  1  0  0  0  0
  9 10  1  0  0  0  0
  9 27  1  0  0  0  0
  9 28  1  0  0  0  0
 10 11  1  0  0  0  0
 10 29  1  0  0  0  0
 10 30  1  0  0  0  0
 11 12  1  0  0  0  0
 11 13  1  0  0  0  0
 12 31  1  0  0  0  0
 12 32  1  0  0  0  0
 12 33  1  0  0  0  0
 13 14  1  0  0  0  0
 13 15  1  0  0  0  0
 14 34  1  0  0  0  0
 14 35  1  0  0  0  0
 14 36  1  0  0  0  0
 15 37  1  0  0  0  0
 15 38  1  0  0  0  0
 15 39  1  0  0  0  0
M  END
