REMARK  Name = 
REMARK  4 active torsions:
REMARK  status: ('A' for Active; 'I' for Inactive)
REMARK    1  A    between atoms: C_1  and  C_2
REMARK    2  A    between atoms: C_11  and  C_12
REMARK    3  A    between atoms: C_13  and  C_14
REMARK    4  A    between atoms: C_13  and  C_15
REMARK                            x       y       z     vdW  Elec       q    Type
REMARK                         _______ _______ _______ _____ _____    ______ ____
ROOT
ATOM      1  C   UNL     1       0.937  -0.033   0.070  0.00  0.00    +0.000 C 
ATOM      2  C   UNL     1       0.430   0.247   1.476  0.00  0.00    +0.000 C 
ATOM      3  C   UNL     1       0.703   1.897   1.887  0.00  0.00    +0.000 C 
ATOM      4  C   UNL     1      -0.892   2.474   2.192  0.00  0.00    +0.000 C 
ATOM      5  C   UNL     1      -1.965   1.093   1.930  0.00  0.00    +0.000 C 
ATOM      6  C   UNL     1      -1.317   0.002   1.580  0.00  0.00    +0.000 C 
ATOM      7  C   UNL     1      -2.095  -1.567   1.239  0.00  0.00    +0.000 C 
ATOM      8  C   UNL     1      -2.710  -2.065   2.878  0.00  0.00    +0.000 C 
ATOM      9  C   UNL     1      -3.945  -1.286   3.201  0.00  0.00    +0.000 C 
ATOM     10  C   UNL     1      -4.027   0.155   3.592  0.00  0.00    +0.000 C 
ATOM     11  C   UNL     1      -3.735   1.194   2.128  0.00  0.00    +0.000 C 
ATOM     12  C   UNL     1      -4.457   0.642   0.909  0.00  0.00    +0.000 C 
ATOM     13  C   UNL     1      -3.034  -3.550   2.869  0.00  0.00    +0.000 C 
ATOM     14  C   UNL     1      -1.779  -4.340   2.538  0.00  0.00    +0.000 C 
ATOM     15  C   UNL     1      -3.548  -3.965   4.238  0.00  0.00    +0.000 C 
ENDROOT
TORSDOF 0
