REMARK  Name = 
REMARK  8 active torsions:
REMARK  status: ('A' for Active; 'I' for Inactive)
REMARK    1  A    between atoms: C_1  and  N_2
REMARK    2  A    between atoms: N_2  and  C_3
REMARK    3  A    between atoms: N_2  and  C_4
REMARK    4  A    between atoms: C_4  and  C_5
REMARK    5  A    between atoms: C_5  and  C_6
REMARK    6  A    between atoms: C_6  and  N_7
REMARK    7  A    between atoms: C_9  and  C_10
REMARK    8  A    between atoms: C_11  and  C_12
REMARK                            x       y       z     vdW  Elec       q    Type
REMARK                         _______ _______ _______ _____ _____    ______ ____
ROOT
ATOM      1  C   UNL     1       3.246  -1.926   0.340  0.00  0.00    +0.000 C 
ATOM      2  C   UNL     1       4.292  -1.613   1.088  0.00  0.00    +0.000 C 
ATOM      3  C   UNL     1       4.584  -2.758   2.005  0.00  0.00    +0.000 C 
ATOM      4  O   UNL     1       5.451  -2.867   2.832  0.00  0.00    +0.000 OA
ATOM      5  N   UNL     1       3.625  -3.739   1.714  0.00  0.00    +0.000 N 
ATOM      6  C   UNL     1       2.768  -3.290   0.713  0.00  0.00    +0.000 C 
ATOM      7  O   UNL     1       1.819  -3.897   0.273  0.00  0.00    +0.000 OA
ATOM      8  H   UNL     1       3.565  -4.650   2.169  0.00  0.00    +0.000 HD
ENDROOT
BRANCH   2   9
ATOM      9  C   UNL     1       5.068  -0.307   1.025  0.00  0.00    +0.000 A 
ATOM     10  C   UNL     1       4.574   0.923   1.244  0.00  0.00    +0.000 A 
ATOM     11  N   UNL     1       5.607   1.898   1.132  0.00  0.00    +0.000 N 
ATOM     12  C   UNL     1       6.782   1.204   0.780  0.00  0.00    +0.000 A 
ATOM     13  C   UNL     1       8.047   1.664   0.443  0.00  0.00    +0.000 A 
ATOM     14  C   UNL     1       8.980   0.712   0.045  0.00  0.00    +0.000 A 
ATOM     15  C   UNL     1       8.671  -0.635   0.004  0.00  0.00    +0.000 A 
ATOM     16  C   UNL     1       7.435  -1.078   0.341  0.00  0.00    +0.000 A 
ATOM     17  C   UNL     1       6.464  -0.157   0.721  0.00  0.00    +0.000 A 
ATOM     18  H   UNL     1       5.513   2.903   1.278  0.00  0.00    +0.000 HD
ENDBRANCH   2   9
BRANCH   1  21
ATOM     19  N   UNL     1       2.510   0.595  -2.463  0.00  0.00    +0.000 N 
ATOM     20  C   UNL     1       3.206  -0.212  -1.567  0.00  0.00    +0.000 A 
ATOM     21  C   UNL     1       2.486  -1.046  -0.639  0.00  0.00    +0.000 A 
ATOM     22  C   UNL     1       1.046  -1.046  -0.639  0.00  0.00    +0.000 A 
ATOM     23  C   UNL     1       0.326  -1.880   0.288  0.00  0.00    +0.000 A 
ATOM     24  C   UNL     1       1.046  -2.714   1.216  0.00  0.00    +0.000 A 
ATOM     25  C   UNL     1       0.326  -3.548   2.143  0.00  0.00    +0.000 A 
ATOM     26  C   UNL     1       1.046  -4.381   3.071  0.00  0.00    +0.000 A 
ATOM     27  C   UNL     1       3.206   1.401  -3.361  0.00  0.00    +0.000 A 
BRANCH  19  28
ATOM     28  C   UNL     1       1.040   0.595  -2.463  0.00  0.00    +0.000 C 
BRANCH  28  29
ATOM     29  C   UNL     1       0.533  -0.807  -2.760  0.00  0.00    +0.000 C 
BRANCH  29  30
ATOM     30  C   UNL     1       1.039  -1.766  -1.695  0.00  0.00    +0.000 C 
BRANCH  30  32
ATOM     31  C   UNL     1       1.039   0.019  -0.090  0.00  0.00    +0.000 C 
ATOM     32  N   UNL     1       0.549  -1.336  -0.377  0.00  0.00    +0.000 NA
ATOM     33  C   UNL     1      -0.921  -1.336  -0.377  0.00  0.00    +0.000 C 
ENDBRANCH  30  32
ENDBRANCH  29  30
ENDBRANCH  28  29
ENDBRANCH  19  28
ENDBRANCH   1  21
TORSDOF 6
