
 OpenBabel03132512093D

 55 59  0  0  0  0  0  0  0  0999 V2000
    1.0394    0.0195   -0.0898 C   0  0  0  0  0  0  0  0  0  0  0  0
    0.5494   -1.3364   -0.3770 N   0  0  0  0  0  0  0  0  0  0  0  0
   -0.9206   -1.3364   -0.3770 C   0  0  0  0  0  0  0  0  0  0  0  0
    1.0394   -1.7656   -1.6947 C   0  0  0  0  0  0  0  0  0  0  0  0
    0.5328   -0.8075   -2.7604 C   0  0  0  0  0  0  0  0  0  0  0  0
    1.0395    0.5945   -2.4635 C   0  0  0  0  0  0  0  0  0  0  0  0
    2.5095    0.5945   -2.4635 N   0  0  0  0  0  0  0  0  0  0  0  0
    3.2059   -0.2120   -1.5665 C   0  0  0  0  0  0  0  0  0  0  0  0
    2.4858   -1.0459   -0.6390 C   0  0  0  0  0  0  0  0  0  0  0  0
    3.2458   -1.9260    0.3399 C   0  0  0  0  0  0  0  0  0  0  0  0
    4.2924   -1.6125    1.0878 C   0  0  0  0  0  0  0  0  0  0  0  0
    5.0681   -0.3068    1.0251 C   0  0  0  0  0  0  0  0  0  0  0  0
    4.5745    0.9226    1.2435 C   0  0  0  0  0  0  0  0  0  0  0  0
    5.6066    1.8980    1.1318 N   0  0  0  0  0  0  0  0  0  0  0  0
    6.7818    1.2045    0.7803 C   0  0  0  0  0  0  0  0  0  0  0  0
    8.0474    1.6640    0.4426 C   0  0  0  0  0  0  0  0  0  0  0  0
    8.9797    0.7117    0.0446 C   0  0  0  0  0  0  0  0  0  0  0  0
    8.6705   -0.6348    0.0043 C   0  0  0  0  0  0  0  0  0  0  0  0
    7.4350   -1.0780    0.3408 C   0  0  0  0  0  0  0  0  0  0  0  0
    6.4637   -0.1567    0.7211 C   0  0  0  0  0  0  0  0  0  0  0  0
    4.5842   -2.7580    2.0049 C   0  0  0  0  0  0  0  0  0  0  0  0
    5.4510   -2.8669    2.8317 O   0  0  0  0  0  0  0  0  0  0  0  0
    3.6252   -3.7394    1.7137 N   0  0  0  0  0  0  0  0  0  0  0  0
    2.7683   -3.2900    0.7132 C   0  0  0  0  0  0  0  0  0  0  0  0
    1.8186   -3.8968    0.2729 O   0  0  0  0  0  0  0  0  0  0  0  0
    1.0456   -1.0459   -0.6390 C   0  0  0  0  0  0  0  0  0  0  0  0
    0.3255   -1.8798    0.2885 C   0  0  0  0  0  0  0  0  0  0  0  0
    1.0456   -2.7137    1.2160 C   0  0  0  0  0  0  0  0  0  0  0  0
    0.3255   -3.5476    2.1435 C   0  0  0  0  0  0  0  0  0  0  0  0
    1.0456   -4.3815    3.0710 C   0  0  0  0  0  0  0  0  0  0  0  0
    3.2059    1.4009   -3.3605 C   0  0  0  0  0  0  0  0  0  0  0  0
    0.6828    0.3319    0.8694 H   0  0  0  0  0  0  0  0  0  0  0  0
    0.6828    0.6939   -0.8400 H   0  0  0  0  0  0  0  0  0  0  0  0
    2.1094    0.0195   -0.0898 H   0  0  0  0  0  0  0  0  0  0  0  0
   -1.2772   -0.6619   -1.1271 H   0  0  0  0  0  0  0  0  0  0  0  0
   -1.2772   -2.3233   -0.5860 H   0  0  0  0  0  0  0  0  0  0  0  0
   -1.2772   -1.0239    0.5822 H   0  0  0  0  0  0  0  0  0  0  0  0
    2.1094   -1.7656   -1.6947 H   0  0  0  0  0  0  0  0  0  0  0  0
    0.6828   -2.7525   -1.9038 H   0  0  0  0  0  0  0  0  0  0  0  0
    0.8895   -1.1199   -3.7196 H   0  0  0  0  0  0  0  0  0  0  0  0
   -0.5372   -0.8075   -2.7604 H   0  0  0  0  0  0  0  0  0  0  0  0
    0.6828    1.2689   -3.2137 H   0  0  0  0  0  0  0  0  0  0  0  0
    0.6828    0.9069   -1.5043 H   0  0  0  0  0  0  0  0  0  0  0  0
    4.2759   -0.2120   -1.5665 H   0  0  0  0  0  0  0  0  0  0  0  0
    3.5512    1.1389    1.4693 H   0  0  0  0  0  0  0  0  0  0  0  0
    5.5132    2.9032    1.2779 H   0  0  0  0  0  0  0  0  0  0  0  0
    8.2946    2.7042    0.4866 H   0  0  0  0  0  0  0  0  0  0  0  0
    9.9616    1.0296   -0.2376 H   0  0  0  0  0  0  0  0  0  0  0  0
    9.4184   -1.3382   -0.2972 H   0  0  0  0  0  0  0  0  0  0  0  0
    7.2089   -2.1235    0.3143 H   0  0  0  0  0  0  0  0  0  0  0  0
    3.5646   -4.6501    2.1690 H   0  0  0  0  0  0  0  0  0  0  0  0
   -0.7445   -1.8798    0.2885 H   0  0  0  0  0  0  0  0  0  0  0  0
    2.1156   -2.7137    1.2160 H   0  0  0  0  0  0  0  0  0  0  0  0
   -0.7445   -3.5476    2.1435 H   0  0  0  0  0  0  0  0  0  0  0  0
    2.1156   -4.3815    3.0710 H   0  0  0  0  0  0  0  0  0  0  0  0
  1  2  1  0  0  0  0
  1 32  1  0  0  0  0
  1 33  1  0  0  0  0
  1 34  1  0  0  0  0
  2  3  1  0  0  0  0
  2  4  1  0  0  0  0
  3 35  1  0  0  0  0
  3 36  1  0  0  0  0
  3 37  1  0  0  0  0
  4  5  1  0  0  0  0
  4 38  1  0  0  0  0
  4 39  1  0  0  0  0
  5  6  1  0  0  0  0
  5 40  1  0  0  0  0
  5 41  1  0  0  0  0
  6  7  1  0  0  0  0
  6 42  1  0  0  0  0
  6 43  1  0  0  0  0
  7  8  1  0  0  0  0
  7 31  1  0  0  0  0
  8  9  2  0  0  0  0
  8 44  1  0  0  0  0
  9 10  1  0  0  0  0
  9 26  1  0  0  0  0
 10 11  2  0  0  0  0
 10 24  1  0  0  0  0
 11 12  1  0  0  0  0
 11 21  1  0  0  0  0
 12 13  2  0  0  0  0
 12 20  1  0  0  0  0
 13 14  1  0  0  0  0
 13 45  1  0  0  0  0
 14 15  1  0  0  0  0
 14 46  1  0  0  0  0
 15 16  1  0  0  0  0
 15 20  2  0  0  0  0
 16 17  2  0  0  0  0
 16 47  1  0  0  0  0
 17 18  1  0  0  0  0
 17 48  1  0  0  0  0
 18 19  2  0  0  0  0
 18 49  1  0  0  0  0
 19 20  1  0  0  0  0
 19 50  1  0  0  0  0
 21 22  2  0  0  0  0
 21 23  1  0  0  0  0
 23 24  1  0  0  0  0
 23 51  1  0  0  0  0
 24 25  2  0  0  0  0
 26 27  1  0  0  0  0
 26 31  2  0  0  0  0
 27 28  2  0  0  0  0
 27 52  1  0  0  0  0
 28 29  1  0  0  0  0
 28 53  1  0  0  0  0
 29 30  2  0  0  0  0
 29 54  1  0  0  0  0
 30 31  1  0  0  0  0
 30 55  1  0  0  0  0
M  END
