REMARK  Name = 
REMARK  6 active torsions:
REMARK  status: ('A' for Active; 'I' for Inactive)
REMARK    1  A    between atoms: C_1  and  C_2
REMARK    2  A    between atoms: C_2  and  C_3
REMARK    3  A    between atoms: C_2  and  C_4
REMARK    4  A    between atoms: C_2  and  C_11
REMARK    5  A    between atoms: C_7  and  O_8
REMARK    6  A    between atoms: C_14  and  O_15
REMARK                            x       y       z     vdW  Elec       q    Type
REMARK                         _______ _______ _______ _____ _____    ______ ____
ROOT
ATOM      1  C   UNL     1       0.919  -0.006   0.059  0.00  0.00    +0.000 C 
ATOM      2  C   UNL     1       0.413   1.247  -0.637  0.00  0.00    +0.000 C 
ATOM      3  C   UNL     1       0.919   1.271  -2.069  0.00  0.00    +0.000 C 
ENDROOT
BRANCH   2   4
ATOM      4  C   UNL     1      -1.107   1.247  -0.637  0.00  0.00    +0.000 A 
ATOM      5  C   UNL     1      -1.794   2.441  -0.636  0.00  0.00    +0.000 A 
ATOM      6  C   UNL     1      -3.193   2.469  -0.648  0.00  0.00    +0.000 A 
ATOM      7  C   UNL     1      -3.870   1.232  -0.678  0.00  0.00    +0.000 A 
ATOM      8  C   UNL     1      -3.174   0.047  -0.648  0.00  0.00    +0.000 A 
ATOM      9  C   UNL     1      -1.792   0.056  -0.637  0.00  0.00    +0.000 A 
BRANCH   7  10
ATOM     10  O   UNL     1      -5.220   1.162  -0.715  0.00  0.00    +0.000 OA
ATOM     11  H   UNL     1      -5.763   2.001  -0.737  0.00  0.00    +0.000 HD
ENDBRANCH   7  10
ENDBRANCH   2   4
BRANCH   2  12
ATOM     12  C   UNL     1       0.919   2.476   0.101  0.00  0.00    +0.000 A 
ATOM     13  C   UNL     1       1.740   2.422   1.206  0.00  0.00    +0.000 A 
ATOM     14  C   UNL     1       2.067   3.580   1.919  0.00  0.00    +0.000 A 
ATOM     15  C   UNL     1       1.541   4.803   1.454  0.00  0.00    +0.000 A 
ATOM     16  C   UNL     1       0.700   4.841   0.368  0.00  0.00    +0.000 A 
ATOM     17  C   UNL     1       0.398   3.678  -0.314  0.00  0.00    +0.000 A 
BRANCH  15  18
ATOM     18  O   UNL     1       1.823   5.976   2.067  0.00  0.00    +0.000 OA
ATOM     19  H   UNL     1       2.430   5.992   2.861  0.00  0.00    +0.000 HD
ENDBRANCH  15  18
ENDBRANCH   2  12
TORSDOF 4
