
 OpenBabel03132512093D

 33 34  0  0  0  0  0  0  0  0999 V2000
    0.9195   -0.0056    0.0591 C   0  0  0  0  0  0  0  0  0  0  0  0
    0.4128    1.2473   -0.6366 C   0  0  0  0  0  0  0  0  0  0  0  0
    0.9195    1.2713   -2.0694 C   0  0  0  0  0  0  0  0  0  0  0  0
   -1.1072    1.2473   -0.6366 C   0  0  0  0  0  0  0  0  0  0  0  0
   -1.7941    2.4414   -0.6365 C   0  0  0  0  0  0  0  0  0  0  0  0
   -3.1926    2.4689   -0.6481 C   0  0  0  0  0  0  0  0  0  0  0  0
   -3.8697    1.2322   -0.6779 C   0  0  0  0  0  0  0  0  0  0  0  0
   -5.2197    1.1621   -0.7145 O   0  0  0  0  0  0  0  0  0  0  0  0
   -3.1736    0.0474   -0.6478 C   0  0  0  0  0  0  0  0  0  0  0  0
   -1.7922    0.0564   -0.6366 C   0  0  0  0  0  0  0  0  0  0  0  0
    0.9195    2.4762    0.1007 C   0  0  0  0  0  0  0  0  0  0  0  0
    1.7397    2.4217    1.2061 C   0  0  0  0  0  0  0  0  0  0  0  0
    2.0666    3.5798    1.9193 C   0  0  0  0  0  0  0  0  0  0  0  0
    1.5411    4.8030    1.4544 C   0  0  0  0  0  0  0  0  0  0  0  0
    1.8227    5.9757    2.0665 O   0  0  0  0  0  0  0  0  0  0  0  0
    0.7000    4.8406    0.3680 C   0  0  0  0  0  0  0  0  0  0  0  0
    0.3976    3.6777   -0.3136 C   0  0  0  0  0  0  0  0  0  0  0  0
    0.5628   -0.8707   -0.4599 H   0  0  0  0  0  0  0  0  0  0  0  0
    0.5628   -0.0225    1.0677 H   0  0  0  0  0  0  0  0  0  0  0  0
    1.9895   -0.0056    0.0591 H   0  0  0  0  0  0  0  0  0  0  0  0
    0.5628    0.4063   -2.5884 H   0  0  0  0  0  0  0  0  0  0  0  0
    0.5628    2.1533   -2.5591 H   0  0  0  0  0  0  0  0  0  0  0  0
    1.9895    1.2713   -2.0694 H   0  0  0  0  0  0  0  0  0  0  0  0
   -1.2493    3.3623   -0.6276 H   0  0  0  0  0  0  0  0  0  0  0  0
   -3.7291    3.3946   -0.6347 H   0  0  0  0  0  0  0  0  0  0  0  0
   -5.7635    2.0009   -0.7373 H   0  0  0  0  0  0  0  0  0  0  0  0
   -3.7022   -0.8828   -0.6329 H   0  0  0  0  0  0  0  0  0  0  0  0
   -1.2535   -0.8680   -0.6279 H   0  0  0  0  0  0  0  0  0  0  0  0
    2.1329    1.4788    1.5242 H   0  0  0  0  0  0  0  0  0  0  0  0
    2.6927    3.5389    2.7861 H   0  0  0  0  0  0  0  0  0  0  0  0
    2.4303    5.9920    2.8605 H   0  0  0  0  0  0  0  0  0  0  0  0
    0.2791    5.7715    0.0498 H   0  0  0  0  0  0  0  0  0  0  0  0
   -0.2458    3.7128   -1.1678 H   0  0  0  0  0  0  0  0  0  0  0  0
  1  2  1  0  0  0  0
  1 18  1  0  0  0  0
  1 19  1  0  0  0  0
  1 20  1  0  0  0  0
  2  3  1  0  0  0  0
  2  4  1  0  0  0  0
  2 11  1  0  0  0  0
  3 21  1  0  0  0  0
  3 22  1  0  0  0  0
  3 23  1  0  0  0  0
  4  5  1  0  0  0  0
  4 10  2  0  0  0  0
  5  6  2  0  0  0  0
  5 24  1  0  0  0  0
  6  7  1  0  0  0  0
  6 25  1  0  0  0  0
  7  8  1  0  0  0  0
  7  9  2  0  0  0  0
  8 26  1  0  0  0  0
  9 10  1  0  0  0  0
  9 27  1  0  0  0  0
 10 28  1  0  0  0  0
 11 12  1  0  0  0  0
 11 17  2  0  0  0  0
 12 13  2  0  0  0  0
 12 29  1  0  0  0  0
 13 14  1  0  0  0  0
 13 30  1  0  0  0  0
 14 15  1  0  0  0  0
 14 16  2  0  0  0  0
 15 31  1  0  0  0  0
 16 17  1  0  0  0  0
 16 32  1  0  0  0  0
 17 33  1  0  0  0  0
M  END
