
 OpenBabel03132514253D

 81 84  0  0  0  0  0  0  0  0999 V2000
    0.9670   -0.0712   -0.0620 C   0  0  0  0  0  0  0  0  0  0  0  0
    0.4604   -1.4605   -0.4135 C   0  0  0  0  0  0  0  0  0  0  0  0
    0.9670   -2.4596    0.6139 C   0  0  0  0  0  0  0  0  0  0  0  0
   -1.0596   -1.4605   -0.4135 C   0  0  0  0  0  0  0  0  0  0  0  0
   -1.6951   -1.7602   -1.4725 O   0  0  0  0  0  0  0  0  0  0  0  0
   -1.8196   -1.1021    0.8531 C   0  0  0  0  0  0  0  0  0  0  0  0
   -1.4524   -2.0792    1.9580 C   0  0  0  0  0  0  0  0  0  0  0  0
    0.0420   -2.0036    2.2253 C   0  0  0  0  0  0  0  0  0  0  0  0
    0.4092   -0.5924    2.6543 C   0  0  0  0  0  0  0  0  0  0  0  0
    0.4092   -2.9807    3.3302 C   0  0  0  0  0  0  0  0  0  0  0  0
    1.9036   -2.9051    3.5974 C   0  0  0  0  0  0  0  0  0  0  0  0
    2.2708   -1.4939    4.0264 C   0  0  0  0  0  0  0  0  0  0  0  0
    1.5108   -1.1355    5.2930 C   0  0  0  0  0  0  0  0  0  0  0  0
    2.5155   -0.8339    6.3930 C   0  0  0  0  0  0  0  0  0  0  0  0
    0.6403    0.0991    5.0520 C   0  0  0  0  0  0  0  0  0  0  0  0
    1.0680    0.7770    3.7481 C   0  0  0  0  0  0  0  0  0  0  0  0
    0.3296    0.1530    2.5918 C   0  0  0  0  0  0  0  0  0  0  0  0
    0.9961   -0.4277    1.6248 C   0  0  0  0  0  0  0  0  0  0  0  0
    0.4237   -4.7032    2.7851 C   0  0  0  0  0  0  0  0  0  0  0  0
    1.0722   -4.1918    1.7272 C   0  0  0  0  0  0  0  0  0  0  0  0
    0.2569   -3.6557    0.6505 C   0  0  0  0  0  0  0  0  0  0  0  0
    0.8797   -2.3839    0.1358 C   0  0  0  0  0  0  0  0  0  0  0  0
    0.7074   -2.4817   -1.2703 O   0  0  0  0  0  0  0  0  0  0  0  0
    0.2578   -1.0512    0.4694 C   0  0  0  0  0  0  0  0  0  0  0  0
   -1.2000   -1.2533    0.8494 C   0  0  0  0  0  0  0  0  0  0  0  0
    0.3437   -0.1350   -0.7404 C   0  0  0  0  0  0  0  0  0  0  0  0
    1.2024   -5.2756    3.9410 C   0  0  0  0  0  0  0  0  0  0  0  0
    1.9679   -6.5694    3.7163 C   0  0  0  0  0  0  0  0  0  0  0  0
    0.6169   -4.7580    5.2565 C   0  0  0  0  0  0  0  0  0  0  0  0
   -0.4107   -5.2277    5.8382 O   0  0  0  0  0  0  0  0  0  0  0  0
    1.4602   -3.5886    5.7616 C   0  0  0  0  0  0  0  0  0  0  0  0
    0.6263   -2.3065    5.7248 C   0  0  0  0  0  0  0  0  0  0  0  0
    0.0599   -2.0306    7.1081 C   0  0  0  0  0  0  0  0  0  0  0  0
    0.6104    0.2035    0.9087 H   0  0  0  0  0  0  0  0  0  0  0  0
    0.6104    0.6321   -0.7852 H   0  0  0  0  0  0  0  0  0  0  0  0
    2.0370   -0.0712   -0.0620 H   0  0  0  0  0  0  0  0  0  0  0  0
    0.8170   -1.7352   -1.3842 H   0  0  0  0  0  0  0  0  0  0  0  0
    0.6103   -2.1849    1.5846 H   0  0  0  0  0  0  0  0  0  0  0  0
    0.6103   -3.4376    0.3665 H   0  0  0  0  0  0  0  0  0  0  0  0
    2.0370   -2.4596    0.6139 H   0  0  0  0  0  0  0  0  0  0  0  0
   -1.5612   -0.1087    1.1551 H   0  0  0  0  0  0  0  0  0  0  0  0
   -2.8716   -1.1553    0.6650 H   0  0  0  0  0  0  0  0  0  0  0  0
   -1.9875   -1.8269    2.8496 H   0  0  0  0  0  0  0  0  0  0  0  0
   -1.7109   -3.0726    1.6560 H   0  0  0  0  0  0  0  0  0  0  0  0
    0.5770   -2.2559    1.3336 H   0  0  0  0  0  0  0  0  0  0  0  0
   -0.1258   -0.3401    3.5459 H   0  0  0  0  0  0  0  0  0  0  0  0
    1.4611   -0.5391    2.8424 H   0  0  0  0  0  0  0  0  0  0  0  0
    0.1507    0.0955    1.8765 H   0  0  0  0  0  0  0  0  0  0  0  0
   -0.1258   -2.7284    4.2218 H   0  0  0  0  0  0  0  0  0  0  0  0
    2.1621   -3.5930    4.3752 H   0  0  0  0  0  0  0  0  0  0  0  0
    2.4386   -3.1574    2.7058 H   0  0  0  0  0  0  0  0  0  0  0  0
    3.3228   -1.4407    4.2145 H   0  0  0  0  0  0  0  0  0  0  0  0
    2.0123   -0.8060    3.2486 H   0  0  0  0  0  0  0  0  0  0  0  0
    3.1249   -1.6963    6.5657 H   0  0  0  0  0  0  0  0  0  0  0  0
    3.1347   -0.0135    6.0954 H   0  0  0  0  0  0  0  0  0  0  0  0
    1.9943   -0.5795    7.2922 H   0  0  0  0  0  0  0  0  0  0  0  0
    0.0965    0.8649    5.5645 H   0  0  0  0  0  0  0  0  0  0  0  0
    0.8379    1.8209    3.7966 H   0  0  0  0  0  0  0  0  0  0  0  0
    2.1213    0.6501    3.6089 H   0  0  0  0  0  0  0  0  0  0  0  0
   -0.7395    0.1842    2.5607 H   0  0  0  0  0  0  0  0  0  0  0  0
   -0.3775   -5.3838    2.9845 H   0  0  0  0  0  0  0  0  0  0  0  0
    1.5950   -5.0191    1.2948 H   0  0  0  0  0  0  0  0  0  0  0  0
    1.6976   -3.4001    2.0836 H   0  0  0  0  0  0  0  0  0  0  0  0
   -0.7271   -3.4489    1.0165 H   0  0  0  0  0  0  0  0  0  0  0  0
    0.1985   -4.3710   -0.1431 H   0  0  0  0  0  0  0  0  0  0  0  0
    1.8826   -2.3585    0.5079 H   0  0  0  0  0  0  0  0  0  0  0  0
   -0.2689   -2.4962   -1.4862 H   0  0  0  0  0  0  0  0  0  0  0  0
   -1.6413   -0.3077    1.0861 H   0  0  0  0  0  0  0  0  0  0  0  0
   -1.7245   -1.6962    0.0287 H   0  0  0  0  0  0  0  0  0  0  0  0
   -1.2605   -1.8983    1.7011 H   0  0  0  0  0  0  0  0  0  0  0  0
    1.3699    0.0072   -1.0079 H   0  0  0  0  0  0  0  0  0  0  0  0
   -0.1808   -0.5779   -1.5612 H   0  0  0  0  0  0  0  0  0  0  0  0
   -0.0976    0.8106   -0.5037 H   0  0  0  0  0  0  0  0  0  0  0  0
    1.2855   -7.3428    3.4314 H   0  0  0  0  0  0  0  0  0  0  0  0
    2.6896   -6.4265    2.9393 H   0  0  0  0  0  0  0  0  0  0  0  0
    2.4676   -6.8498    4.6200 H   0  0  0  0  0  0  0  0  0  0  0  0
    1.7735   -3.7821    6.7662 H   0  0  0  0  0  0  0  0  0  0  0  0
    2.3206   -3.4728    5.1361 H   0  0  0  0  0  0  0  0  0  0  0  0
    0.8629   -1.9140    7.8056 H   0  0  0  0  0  0  0  0  0  0  0  0
   -0.5232   -1.1338    7.0824 H   0  0  0  0  0  0  0  0  0  0  0  0
   -0.5587   -2.8497    7.4101 H   0  0  0  0  0  0  0  0  0  0  0  0
  1  2  1  0  0  0  0
  1 34  1  0  0  0  0
  1 35  1  0  0  0  0
  1 36  1  0  0  0  0
  2  3  1  0  0  0  0
  2  4  1  0  0  0  0
  2 37  1  0  0  0  0
  3 38  1  0  0  0  0
  3 39  1  0  0  0  0
  3 40  1  0  0  0  0
  4  5  2  0  0  0  0
  4  6  1  0  0  0  0
  6  7  1  0  0  0  0
  6 41  1  0  0  0  0
  6 42  1  0  0  0  0
  7  8  1  0  0  0  0
  7 43  1  0  0  0  0
  7 44  1  0  0  0  0
  8  9  1  0  0  0  0
  8 10  1  0  0  0  0
  8 45  1  0  0  0  0
  9 46  1  0  0  0  0
  9 47  1  0  0  0  0
  9 48  1  0  0  0  0
 10 11  1  0  0  0  0
 10 32  1  0  0  0  0
 10 49  1  0  0  0  0
 11 12  1  0  0  0  0
 11 50  1  0  0  0  0
 11 51  1  0  0  0  0
 12 13  1  0  0  0  0
 12 52  1  0  0  0  0
 12 53  1  0  0  0  0
 13 14  1  0  0  0  0
 13 15  1  0  0  0  0
 13 32  1  0  0  0  0
 14 54  1  0  0  0  0
 14 55  1  0  0  0  0
 14 56  1  0  0  0  0
 15 16  1  0  0  0  0
 15 27  1  0  0  0  0
 15 57  1  0  0  0  0
 16 17  1  0  0  0  0
 16 58  1  0  0  0  0
 16 59  1  0  0  0  0
 17 18  2  0  0  0  0
 17 60  1  0  0  0  0
 18 19  1  0  0  0  0
 18 24  1  0  0  0  0
 19 20  1  0  0  0  0
 19 27  1  0  0  0  0
 19 61  1  0  0  0  0
 20 21  1  0  0  0  0
 20 62  1  0  0  0  0
 20 63  1  0  0  0  0
 21 22  1  0  0  0  0
 21 64  1  0  0  0  0
 21 65  1  0  0  0  0
 22 23  1  0  0  0  0
 22 24  1  0  0  0  0
 22 66  1  0  0  0  0
 23 67  1  0  0  0  0
 24 25  1  0  0  0  0
 24 26  1  0  0  0  0
 25 68  1  0  0  0  0
 25 69  1  0  0  0  0
 25 70  1  0  0  0  0
 26 71  1  0  0  0  0
 26 72  1  0  0  0  0
 26 73  1  0  0  0  0
 27 28  1  0  0  0  0
 27 29  1  0  0  0  0
 28 74  1  0  0  0  0
 28 75  1  0  0  0  0
 28 76  1  0  0  0  0
 29 30  2  0  0  0  0
 29 31  1  0  0  0  0
 31 32  1  0  0  0  0
 31 77  1  0  0  0  0
 31 78  1  0  0  0  0
 32 33  1  0  0  0  0
 33 79  1  0  0  0  0
 33 80  1  0  0  0  0
 33 81  1  0  0  0  0
M  END
