REMARK  Name = 
REMARK  16 active torsions:
REMARK  status: ('A' for Active; 'I' for Inactive)
REMARK    1  A    between atoms: C_1  and  C_2
REMARK    2  A    between atoms: C_2  and  C_3
REMARK    3  A    between atoms: C_2  and  C_11
REMARK    4  A    between atoms: C_3  and  C_4
REMARK    5  A    between atoms: C_4  and  C_5
REMARK    6  A    between atoms: C_5  and  O_6
REMARK    7  A    between atoms: C_5  and  C_7
REMARK    8  A    between atoms: C_7  and  C_8
REMARK    9  A    between atoms: C_7  and  C_9
REMARK   10  A    between atoms: C_7  and  O_10
REMARK   11  A    between atoms: C_14  and  C_15
REMARK   12  A    between atoms: C_23  and  O_24
REMARK   13  A    between atoms: C_25  and  C_26
REMARK   14  A    between atoms: C_25  and  C_27
REMARK   15  A    between atoms: C_28  and  C_29
REMARK   16  A    between atoms: C_33  and  C_34
REMARK                            x       y       z     vdW  Elec       q    Type
REMARK                         _______ _______ _______ _____ _____    ______ ____
ROOT
ATOM      1  C   UNL     1      -0.973   1.476   0.110  0.00  0.00    +0.000 C 
ATOM      2  C   UNL     1      -1.480   2.908   0.148  0.00  0.00    +0.000 C 
ATOM      3  C   UNL     1      -0.973   3.657  -1.073  0.00  0.00    +0.000 C 
ATOM      4  C   UNL     1      -1.480   2.974  -2.333  0.00  0.00    +0.000 C 
ATOM      5  C   UNL     1      -2.472   1.875  -1.989  0.00  0.00    +0.000 C 
ATOM      6  C   UNL     1      -2.197   3.972  -3.244  0.00  0.00    +0.000 C 
ATOM      7  C   UNL     1      -2.587   5.211  -2.434  0.00  0.00    +0.000 C 
ATOM      8  C   UNL     1      -1.440   6.189  -2.429  0.00  0.00    +0.000 C 
ATOM      9  C   UNL     1      -0.892   6.551  -1.296  0.00  0.00    +0.000 C 
ATOM     10  C   UNL     1       2.791   4.026  -1.409  0.00  0.00    +0.000 C 
ATOM     11  C   UNL     1       2.400   4.913  -0.481  0.00  0.00    +0.000 C 
ATOM     12  C   UNL     1       2.520   6.321  -0.824  0.00  0.00    +0.000 C 
ATOM     13  C   UNL     1       1.309   7.064  -0.321  0.00  0.00    +0.000 C 
ATOM     14  C   UNL     1       0.254   7.529  -1.292  0.00  0.00    +0.000 C 
ATOM     15  C   UNL     1       0.851   7.616  -2.687  0.00  0.00    +0.000 C 
ATOM     16  C   UNL     1      -0.251   8.900  -0.872  0.00  0.00    +0.000 C 
ATOM     17  C   UNL     1       2.695   2.549  -1.125  0.00  0.00    +0.000 C 
ATOM     18  C   UNL     1       3.633   1.958  -0.086  0.00  0.00    +0.000 C 
ATOM     19  C   UNL     1       2.075   1.838  -2.330  0.00  0.00    +0.000 C 
ATOM     20  O   UNL     1       2.699   1.500  -3.384  0.00  0.00    +0.000 OA
ATOM     21  C   UNL     1       0.589   1.599  -2.068  0.00  0.00    +0.000 C 
ATOM     22  C   UNL     1      -0.241   2.430  -3.048  0.00  0.00    +0.000 C 
ATOM     23  C   UNL     1      -0.672   1.557  -4.215  0.00  0.00    +0.000 C 
ENDROOT
BRANCH   1  25
ATOM     24  C   UNL     1       1.054   0.043   0.073  0.00  0.00    +0.000 C 
ATOM     25  C   UNL     1       0.547   1.476   0.110  0.00  0.00    +0.000 C 
BRANCH  25  26
ATOM     26  C   UNL     1       1.054   2.225  -1.111  0.00  0.00    +0.000 C 
BRANCH  26  27
ATOM     27  C   UNL     1       0.547   1.541  -2.371  0.00  0.00    +0.000 C 
BRANCH  27  28
ATOM     28  C   UNL     1      -0.973   1.541  -2.371  0.00  0.00    +0.000 C 
BRANCH  28  29
ATOM     29  C   UNL     1      -1.480   0.858  -3.630  0.00  0.00    +0.000 C 
ATOM     30  C   UNL     1      -0.973  -0.575  -3.668  0.00  0.00    +0.000 C 
ATOM     31  C   UNL     1      -3.000   0.858  -3.630  0.00  0.00    +0.000 C 
BRANCH  29  32
ATOM     32  O   UNL     1      -1.006   1.557  -4.772  0.00  0.00    +0.000 OA
ATOM     33  H   UNL     1      -1.340   1.108  -5.600  0.00  0.00    +0.000 HD
ENDBRANCH  29  32
ENDBRANCH  28  29
BRANCH  28  34
ATOM     34  O   UNL     1      -1.446   2.880  -2.336  0.00  0.00    +0.000 OA
ATOM     35  H   UNL     1      -1.113   3.329  -1.507  0.00  0.00    +0.000 HD
ENDBRANCH  28  34
ENDBRANCH  27  28
ENDBRANCH  26  27
ENDBRANCH  25  26
ENDBRANCH   1  25
BRANCH  13  36
ATOM     36  O   UNL     1       1.854   8.277   0.176  0.00  0.00    +0.000 OA
ATOM     37  H   UNL     1       2.279   8.784  -0.574  0.00  0.00    +0.000 HD
ENDBRANCH  13  36
TORSDOF 8
