REMARK  Name = 
REMARK  14 active torsions:
REMARK  status: ('A' for Active; 'I' for Inactive)
REMARK    1  A    between atoms: C_1  and  C_2
REMARK    2  A    between atoms: C_2  and  C_3
REMARK    3  A    between atoms: C_2  and  C_4
REMARK    4  A    between atoms: C_4  and  C_6
REMARK    5  A    between atoms: C_6  and  C_7
REMARK    6  A    between atoms: C_7  and  C_8
REMARK    7  A    between atoms: C_8  and  C_9
REMARK    8  A    between atoms: C_8  and  C_10
REMARK    9  A    between atoms: C_13  and  C_14
REMARK   10  A    between atoms: C_22  and  O_23
REMARK   11  A    between atoms: C_24  and  C_25
REMARK   12  A    between atoms: C_24  and  C_26
REMARK   13  A    between atoms: C_27  and  C_28
REMARK   14  A    between atoms: C_32  and  C_33
REMARK                            x       y       z     vdW  Elec       q    Type
REMARK                         _______ _______ _______ _____ _____    ______ ____
ROOT
ATOM      1  C   UNL     1       0.434   0.265  -4.461  0.00  0.00    +0.000 C 
ATOM      2  C   UNL     1       1.928   0.047  -4.633  0.00  0.00    +0.000 C 
ATOM      3  C   UNL     1       2.295  -1.347  -4.152  0.00  0.00    +0.000 C 
ATOM      4  C   UNL     1       1.535  -2.381  -4.967  0.00  0.00    +0.000 C 
ATOM      5  C   UNL     1       0.899  -3.395  -4.030  0.00  0.00    +0.000 C 
ATOM      6  C   UNL     1       0.449  -1.680  -5.784  0.00  0.00    +0.000 C 
ATOM      7  C   UNL     1       0.240  -0.263  -5.244  0.00  0.00    +0.000 C 
ATOM      8  C   UNL     1       1.210   0.677  -5.913  0.00  0.00    +0.000 C 
ATOM      9  C   UNL     1       2.078   1.344  -5.193  0.00  0.00    +0.000 C 
ATOM     10  C   UNL     1       5.730  -1.111  -5.964  0.00  0.00    +0.000 C 
ATOM     11  C   UNL     1       5.597   0.003  -5.226  0.00  0.00    +0.000 C 
ATOM     12  C   UNL     1       5.446   1.256  -5.946  0.00  0.00    +0.000 C 
ATOM     13  C   UNL     1       4.416   2.110  -5.253  0.00  0.00    +0.000 C 
ATOM     14  C   UNL     1       3.047   2.283  -5.862  0.00  0.00    +0.000 C 
ATOM     15  C   UNL     1       3.111   1.973  -7.348  0.00  0.00    +0.000 C 
ATOM     16  C   UNL     1       2.582   3.717  -5.663  0.00  0.00    +0.000 C 
ATOM     17  C   UNL     1       5.889  -2.448  -5.288  0.00  0.00    +0.000 C 
ATOM     18  C   UNL     1       7.186  -2.722  -4.543  0.00  0.00    +0.000 C 
ATOM     19  C   UNL     1       4.966  -3.470  -5.954  0.00  0.00    +0.000 C 
ATOM     20  O   UNL     1       5.215  -4.092  -7.033  0.00  0.00    +0.000 OA
ATOM     21  C   UNL     1       3.696  -3.626  -5.118  0.00  0.00    +0.000 C 
ATOM     22  C   UNL     1       2.497  -3.104  -5.912  0.00  0.00    +0.000 C 
ATOM     23  C   UNL     1       1.779  -4.271  -6.571  0.00  0.00    +0.000 C 
ENDROOT
BRANCH   1  24
ATOM     24  C   UNL     1       0.067   0.122  -2.993  0.00  0.00    +0.000 C 
ATOM     25  C   UNL     1       0.434  -1.272  -2.512  0.00  0.00    +0.000 C 
BRANCH  24  26
ATOM     26  C   UNL     1      -1.428   0.341  -2.821  0.00  0.00    +0.000 C 
BRANCH  26  27
ATOM     27  C   UNL     1      -1.795   0.198  -1.353  0.00  0.00    +0.000 C 
BRANCH  27  28
ATOM     28  C   UNL     1      -1.035   1.232  -0.538  0.00  0.00    +0.000 C 
ATOM     29  O   UNL     1      -1.670   2.096   0.143  0.00  0.00    +0.000 OA
BRANCH  28  31
ATOM     30  C   UNL     1       0.992  -0.099  -0.007  0.00  0.00    +0.000 C 
ATOM     31  C   UNL     1       0.485   1.232  -0.538  0.00  0.00    +0.000 C 
ATOM     32  C   UNL     1       0.992   1.438  -1.956  0.00  0.00    +0.000 C 
ENDBRANCH  28  31
ENDBRANCH  27  28
ENDBRANCH  26  27
ENDBRANCH  24  26
ENDBRANCH   1  24
BRANCH  13  33
ATOM     33  O   UNL     1       4.973   3.415  -5.325  0.00  0.00    +0.000 OA
ATOM     34  H   UNL     1       5.056   3.689  -6.283  0.00  0.00    +0.000 HD
ENDBRANCH  13  33
TORSDOF 6
