REMARK  Name = 
REMARK  16 active torsions:
REMARK  status: ('A' for Active; 'I' for Inactive)
REMARK    1  A    between atoms: C_1  and  C_2
REMARK    2  A    between atoms: C_2  and  C_3
REMARK    3  A    between atoms: C_2  and  C_11
REMARK    4  A    between atoms: C_3  and  C_4
REMARK    5  A    between atoms: C_4  and  C_5
REMARK    6  A    between atoms: C_5  and  O_6
REMARK    7  A    between atoms: C_5  and  C_7
REMARK    8  A    between atoms: C_7  and  C_8
REMARK    9  A    between atoms: C_7  and  C_9
REMARK   10  A    between atoms: C_7  and  O_10
REMARK   11  A    between atoms: C_14  and  C_15
REMARK   12  A    between atoms: C_23  and  O_24
REMARK   13  A    between atoms: C_25  and  C_26
REMARK   14  A    between atoms: C_25  and  C_27
REMARK   15  A    between atoms: C_28  and  C_29
REMARK   16  A    between atoms: C_33  and  C_34
REMARK                            x       y       z     vdW  Elec       q    Type
REMARK                         _______ _______ _______ _____ _____    ______ ____
ROOT
ATOM      1  C   UNL     1      -0.950  -0.794   1.127  0.00  0.00    +0.000 C 
ATOM      2  C   UNL     1      -1.456  -1.590   2.318  0.00  0.00    +0.000 C 
ATOM      3  C   UNL     1      -0.950  -0.957   3.604  0.00  0.00    +0.000 C 
ATOM      4  C   UNL     1      -1.456   0.473   3.698  0.00  0.00    +0.000 C 
ATOM      5  C   UNL     1      -0.538   1.574   4.202  0.00  0.00    +0.000 C 
ATOM      6  C   UNL     1      -1.919   0.855   2.291  0.00  0.00    +0.000 C 
ATOM      7  C   UNL     1      -1.029   0.162   1.257  0.00  0.00    +0.000 C 
ATOM      8  C   UNL     1      -1.579  -1.209   0.959  0.00  0.00    +0.000 C 
ATOM      9  C   UNL     1      -0.848  -2.273   1.186  0.00  0.00    +0.000 C 
ATOM     10  C   UNL     1      -2.693  -3.642   5.017  0.00  0.00    +0.000 C 
ATOM     11  C   UNL     1      -1.697  -4.198   4.310  0.00  0.00    +0.000 C 
ATOM     12  C   UNL     1      -2.063  -4.887   3.084  0.00  0.00    +0.000 C 
ATOM     13  C   UNL     1      -1.048  -4.582   2.014  0.00  0.00    +0.000 C 
ATOM     14  C   UNL     1      -1.398  -3.643   0.887  0.00  0.00    +0.000 C 
ATOM     15  C   UNL     1      -2.910  -3.563   0.747  0.00  0.00    +0.000 C 
ATOM     16  C   UNL     1      -0.796  -4.160  -0.409  0.00  0.00    +0.000 C 
ATOM     17  C   UNL     1      -2.389  -2.909   6.298  0.00  0.00    +0.000 C 
ATOM     18  C   UNL     1      -1.922  -3.723   7.493  0.00  0.00    +0.000 C 
ATOM     19  C   UNL     1      -3.146  -1.580   6.316  0.00  0.00    +0.000 C 
ATOM     20  O   UNL     1      -4.369  -1.435   6.634  0.00  0.00    +0.000 OA
ATOM     21  C   UNL     1      -2.205  -0.454   5.894  0.00  0.00    +0.000 C 
ATOM     22  C   UNL     1      -2.673   0.128   4.559  0.00  0.00    +0.000 C 
ATOM     23  C   UNL     1      -3.487   1.387   4.813  0.00  0.00    +0.000 C 
ENDROOT
BRANCH   1  25
ATOM     24  C   UNL     1       1.077   0.003  -0.064  0.00  0.00    +0.000 C 
ATOM     25  C   UNL     1       0.570  -0.794   1.127  0.00  0.00    +0.000 C 
BRANCH  25  26
ATOM     26  C   UNL     1       1.077  -0.160   2.413  0.00  0.00    +0.000 C 
BRANCH  26  27
ATOM     27  C   UNL     1       0.570   1.270   2.507  0.00  0.00    +0.000 C 
BRANCH  27  28
ATOM     28  C   UNL     1      -0.950   1.270   2.507  0.00  0.00    +0.000 C 
BRANCH  28  29
ATOM     29  C   UNL     1      -1.456   2.700   2.602  0.00  0.00    +0.000 C 
ATOM     30  C   UNL     1      -0.950   3.496   1.410  0.00  0.00    +0.000 C 
ATOM     31  C   UNL     1      -2.977   2.700   2.602  0.00  0.00    +0.000 C 
BRANCH  29  32
ATOM     32  O   UNL     1      -0.983   3.291   3.803  0.00  0.00    +0.000 OA
ATOM     33  H   UNL     1      -1.317   4.232   3.865  0.00  0.00    +0.000 HD
ENDBRANCH  29  32
ENDBRANCH  28  29
BRANCH  28  34
ATOM     34  O   UNL     1      -1.423   0.525   3.620  0.00  0.00    +0.000 OA
ATOM     35  H   UNL     1      -1.090  -0.415   3.558  0.00  0.00    +0.000 HD
ENDBRANCH  28  34
ENDBRANCH  27  28
ENDBRANCH  26  27
ENDBRANCH  25  26
ENDBRANCH   1  25
BRANCH  13  36
ATOM     36  O   UNL     1      -0.879  -5.830   1.358  0.00  0.00    +0.000 OA
ATOM     37  H   UNL     1      -1.744  -6.106   0.940  0.00  0.00    +0.000 HD
ENDBRANCH  13  36
TORSDOF 8
