REMARK  Name = 
REMARK  13 active torsions:
REMARK  status: ('A' for Active; 'I' for Inactive)
REMARK    1  A    between atoms: C_4  and  C_5
REMARK    2  A    between atoms: C_10  and  C_11
REMARK    3  A    between atoms: C_15  and  C_16
REMARK    4  A    between atoms: C_16  and  C_17
REMARK    5  A    between atoms: C_16  and  C_18
REMARK    6  A    between atoms: C_18  and  C_19
REMARK    7  A    between atoms: C_19  and  C_20
REMARK    8  A    between atoms: C_20  and  C_21
REMARK    9  A    between atoms: C_21  and  C_22
REMARK   10  A    between atoms: C_21  and  C_23
REMARK   11  A    between atoms: C_21  and  O_24
REMARK   12  A    between atoms: C_26  and  O_27
REMARK   13  A    between atoms: C_29  and  O_30
REMARK                            x       y       z     vdW  Elec       q    Type
REMARK                         _______ _______ _______ _____ _____    ______ ____
ROOT
ATOM      1  C   UNL     1       2.354   3.976  -1.953  0.00  0.00    +0.000 C 
ATOM      2  C   UNL     1       3.221   4.913  -1.483  0.00  0.00    +0.000 C 
ATOM      3  C   UNL     1       3.667   4.908  -0.019  0.00  0.00    +0.000 C 
ATOM      4  C   UNL     1       5.089   4.788   0.045  0.00  0.00    +0.000 C 
ATOM      5  C   UNL     1       5.794   5.860  -0.583  0.00  0.00    +0.000 C 
ATOM      6  C   UNL     1       5.435   5.904  -2.070  0.00  0.00    +0.000 C 
ATOM      7  C   UNL     1       6.136   7.080  -2.729  0.00  0.00    +0.000 C 
ATOM      8  C   UNL     1       3.918   6.064  -2.217  0.00  0.00    +0.000 C 
ATOM      9  C   UNL     1       6.219   5.841  -4.872  0.00  0.00    +0.000 C 
ATOM     10  C   UNL     1       5.520   4.661  -4.217  0.00  0.00    +0.000 C 
ATOM     11  C   UNL     1       5.880   4.615  -2.741  0.00  0.00    +0.000 C 
ENDROOT
BRANCH   1  15
ATOM     12  C   UNL     1       0.967  -0.059   0.073  0.00  0.00    +0.000 C 
ATOM     13  C   UNL     1       0.287   0.873  -0.647  0.00  0.00    +0.000 C 
ATOM     14  C   UNL     1       0.925   1.985  -1.483  0.00  0.00    +0.000 C 
ATOM     15  C   UNL     1       1.792   2.922  -1.013  0.00  0.00    +0.000 C 
ATOM     16  C   UNL     1       0.468   1.886  -2.834  0.00  0.00    +0.000 C 
ATOM     17  C   UNL     1      -0.945   2.034  -2.984  0.00  0.00    +0.000 C 
ATOM     18  C   UNL     1      -1.658   0.923  -2.208  0.00  0.00    +0.000 C 
ATOM     19  C   UNL     1      -1.238   0.988  -0.737  0.00  0.00    +0.000 C 
BRANCH  17  20
ATOM     20  O   UNL     1      -1.287   1.946  -4.359  0.00  0.00    +0.000 OA
ATOM     21  H   UNL     1      -1.005   1.056  -4.717  0.00  0.00    +0.000 HD
ENDBRANCH  17  20
BRANCH  19  22
ATOM     22  O   UNL     1      -1.843  -0.076  -0.018  0.00  0.00    +0.000 OA
ATOM     23  H   UNL     1      -1.552  -0.950  -0.409  0.00  0.00    +0.000 HD
ENDBRANCH  19  22
ENDBRANCH   1  15
BRANCH  11  24
ATOM     24  C   UNL     1       7.385   4.459  -2.592  0.00  0.00    +0.000 C 
ATOM     25  C   UNL     1       7.745   4.412  -1.116  0.00  0.00    +0.000 C 
BRANCH  24  26
ATOM     26  C   UNL     1       7.830   3.170  -3.263  0.00  0.00    +0.000 C 
BRANCH  26  27
ATOM     27  C   UNL     1       7.470   3.217  -4.739  0.00  0.00    +0.000 C 
BRANCH  27  28
ATOM     28  C   UNL     1       8.169   4.397  -5.394  0.00  0.00    +0.000 C 
BRANCH  28  29
ATOM     29  C   UNL     1       9.673   4.241  -5.245  0.00  0.00    +0.000 C 
ATOM     30  C   UNL     1      10.119   2.952  -5.916  0.00  0.00    +0.000 C 
ATOM     31  C   UNL     1      10.372   5.421  -5.900  0.00  0.00    +0.000 C 
BRANCH  29  32
ATOM     32  O   UNL     1      10.010   4.198  -3.866  0.00  0.00    +0.000 OA
ATOM     33  H   UNL     1      11.000   4.095  -3.767  0.00  0.00    +0.000 HD
ENDBRANCH  29  32
ENDBRANCH  28  29
ENDBRANCH  27  28
ENDBRANCH  26  27
ENDBRANCH  24  26
ENDBRANCH  11  24
TORSDOF 9
