
 OpenBabel03132512093D

 74 76  0  0  0  0  0  0  0  0999 V2000
    1.0010   -0.0761   -0.0648 C   0  0  0  0  0  0  0  0  0  0  0  0
    0.3208   -0.6334    0.9732 C   0  0  0  0  0  0  0  0  0  0  0  0
    0.9197   -1.3425    2.1901 C   0  0  0  0  0  0  0  0  0  0  0  0
    1.7724   -2.4014    2.1415 C   0  0  0  0  0  0  0  0  0  0  0  0
    2.2960   -3.0152    3.4297 C   0  0  0  0  0  0  0  0  0  0  0  0
    3.1487   -4.0741    3.3812 C   0  0  0  0  0  0  0  0  0  0  0  0
    3.6154   -4.9957    2.2519 C   0  0  0  0  0  0  0  0  0  0  0  0
    5.0393   -5.1120    2.2904 C   0  0  0  0  0  0  0  0  0  0  0  0
    5.5457   -5.6760    3.5016 C   0  0  0  0  0  0  0  0  0  0  0  0
    5.1571   -4.7819    4.6814 C   0  0  0  0  0  0  0  0  0  0  0  0
    5.6428   -5.4102    5.9774 C   0  0  0  0  0  0  0  0  0  0  0  0
    3.6326   -4.6372    4.7215 C   0  0  0  0  0  0  0  0  0  0  0  0
    5.8888   -3.1608    6.9854 C   0  0  0  0  0  0  0  0  0  0  0  0
    5.4063   -2.5278    5.6904 C   0  0  0  0  0  0  0  0  0  0  0  0
    5.7965   -3.4126    4.5177 C   0  0  0  0  0  0  0  0  0  0  0  0
    7.3087   -3.5613    4.4764 C   0  0  0  0  0  0  0  0  0  0  0  0
    7.6989   -4.4462    3.3038 C   0  0  0  0  0  0  0  0  0  0  0  0
    7.9481   -2.1921    4.3128 C   0  0  0  0  0  0  0  0  0  0  0  0
    7.5579   -1.3072    5.4854 C   0  0  0  0  0  0  0  0  0  0  0  0
    8.0403   -1.9402    6.7804 C   0  0  0  0  0  0  0  0  0  0  0  0
    9.5525   -2.0889    6.7391 C   0  0  0  0  0  0  0  0  0  0  0  0
   10.1919   -0.7197    6.5754 C   0  0  0  0  0  0  0  0  0  0  0  0
   10.0349   -2.7219    8.0340 C   0  0  0  0  0  0  0  0  0  0  0  0
    9.9171   -2.9155    5.6436 O   0  0  0  0  0  0  0  0  0  0  0  0
    0.4441   -0.7199    3.3854 C   0  0  0  0  0  0  0  0  0  0  0  0
   -0.9743   -0.7766    3.5477 C   0  0  0  0  0  0  0  0  0  0  0  0
   -1.3361   -0.1561    4.7726 O   0  0  0  0  0  0  0  0  0  0  0  0
   -1.6497   -0.0445    2.3856 C   0  0  0  0  0  0  0  0  0  0  0  0
   -1.2078   -0.6827    1.0650 C   0  0  0  0  0  0  0  0  0  0  0  0
   -1.7766    0.0281   -0.0248 O   0  0  0  0  0  0  0  0  0  0  0  0
    0.4660    0.3622   -0.8813 H   0  0  0  0  0  0  0  0  0  0  0  0
    2.0710   -0.0761   -0.0648 H   0  0  0  0  0  0  0  0  0  0  0  0
    2.0746   -2.8021    1.1965 H   0  0  0  0  0  0  0  0  0  0  0  0
    1.9938   -2.6145    4.3748 H   0  0  0  0  0  0  0  0  0  0  0  0
    3.1748   -5.9629    2.3755 H   0  0  0  0  0  0  0  0  0  0  0  0
    3.3162   -4.5855    1.3100 H   0  0  0  0  0  0  0  0  0  0  0  0
    5.4321   -4.1189    2.2244 H   0  0  0  0  0  0  0  0  0  0  0  0
    5.3479   -5.7333    1.4757 H   0  0  0  0  0  0  0  0  0  0  0  0
    6.6117   -5.7473    3.4437 H   0  0  0  0  0  0  0  0  0  0  0  0
    5.1303   -6.6520    3.6416 H   0  0  0  0  0  0  0  0  0  0  0  0
    5.1926   -6.3735    6.0974 H   0  0  0  0  0  0  0  0  0  0  0  0
    6.7071   -5.5154    5.9459 H   0  0  0  0  0  0  0  0  0  0  0  0
    5.3705   -4.7842    6.8013 H   0  0  0  0  0  0  0  0  0  0  0  0
    3.1859   -5.5947    4.8904 H   0  0  0  0  0  0  0  0  0  0  0  0
    5.6140   -2.5379    7.8108 H   0  0  0  0  0  0  0  0  0  0  0  0
    5.4386   -4.1246    7.1006 H   0  0  0  0  0  0  0  0  0  0  0  0
    5.8564   -1.5639    5.5752 H   0  0  0  0  0  0  0  0  0  0  0  0
    4.3418   -2.4231    5.7195 H   0  0  0  0  0  0  0  0  0  0  0  0
    5.4569   -2.9670    3.6062 H   0  0  0  0  0  0  0  0  0  0  0  0
    7.6483   -4.0069    5.3880 H   0  0  0  0  0  0  0  0  0  0  0  0
    7.3593   -4.0006    2.3922 H   0  0  0  0  0  0  0  0  0  0  0  0
    8.7634   -4.5508    3.2747 H   0  0  0  0  0  0  0  0  0  0  0  0
    7.2488   -5.4100    3.4190 H   0  0  0  0  0  0  0  0  0  0  0  0
    9.0126   -2.2968    4.2837 H   0  0  0  0  0  0  0  0  0  0  0  0
    7.6085   -1.7465    3.4012 H   0  0  0  0  0  0  0  0  0  0  0  0
    8.0080   -0.3434    5.3702 H   0  0  0  0  0  0  0  0  0  0  0  0
    6.4934   -1.2026    5.5145 H   0  0  0  0  0  0  0  0  0  0  0  0
    7.7656   -1.3173    7.6059 H   0  0  0  0  0  0  0  0  0  0  0  0
    7.5902   -2.9041    6.8956 H   0  0  0  0  0  0  0  0  0  0  0  0
    9.9172   -0.0968    7.4009 H   0  0  0  0  0  0  0  0  0  0  0  0
   11.2564   -0.8243    6.5463 H   0  0  0  0  0  0  0  0  0  0  0  0
    9.8523   -0.2741    5.6638 H   0  0  0  0  0  0  0  0  0  0  0  0
    9.5848   -3.6857    8.1492 H   0  0  0  0  0  0  0  0  0  0  0  0
   11.0994   -2.8265    8.0049 H   0  0  0  0  0  0  0  0  0  0  0  0
    9.7602   -2.0990    8.8595 H   0  0  0  0  0  0  0  0  0  0  0  0
   10.9119   -3.0133    5.6164 H   0  0  0  0  0  0  0  0  0  0  0  0
    0.7061    0.3154    3.3194 H   0  0  0  0  0  0  0  0  0  0  0  0
    0.8979   -1.2084    4.2222 H   0  0  0  0  0  0  0  0  0  0  0  0
   -1.2916   -1.7984    3.5583 H   0  0  0  0  0  0  0  0  0  0  0  0
   -1.0396    0.7988    4.7629 H   0  0  0  0  0  0  0  0  0  0  0  0
   -1.3686    0.9878    2.3984 H   0  0  0  0  0  0  0  0  0  0  0  0
   -2.7125   -0.1221    2.4829 H   0  0  0  0  0  0  0  0  0  0  0  0
   -1.5365   -1.7004    1.0308 H   0  0  0  0  0  0  0  0  0  0  0  0
   -1.4722    0.9802    0.0029 H   0  0  0  0  0  0  0  0  0  0  0  0
  1  2  2  0  0  0  0
  1 31  1  0  0  0  0
  1 32  1  0  0  0  0
  2  3  1  0  0  0  0
  2 29  1  0  0  0  0
  3  4  2  0  0  0  0
  3 25  1  0  0  0  0
  4  5  1  0  0  0  0
  4 33  1  0  0  0  0
  5  6  2  0  0  0  0
  5 34  1  0  0  0  0
  6  7  1  0  0  0  0
  6 12  1  0  0  0  0
  7  8  1  0  0  0  0
  7 35  1  0  0  0  0
  7 36  1  0  0  0  0
  8  9  1  0  0  0  0
  8 37  1  0  0  0  0
  8 38  1  0  0  0  0
  9 10  1  0  0  0  0
  9 39  1  0  0  0  0
  9 40  1  0  0  0  0
 10 11  1  0  0  0  0
 10 12  1  0  0  0  0
 10 15  1  0  0  0  0
 11 41  1  0  0  0  0
 11 42  1  0  0  0  0
 11 43  1  0  0  0  0
 12 13  1  0  0  0  0
 12 44  1  0  0  0  0
 13 14  1  0  0  0  0
 13 45  1  0  0  0  0
 13 46  1  0  0  0  0
 14 15  1  0  0  0  0
 14 47  1  0  0  0  0
 14 48  1  0  0  0  0
 15 16  1  0  0  0  0
 15 49  1  0  0  0  0
 16 17  1  0  0  0  0
 16 18  1  0  0  0  0
 16 50  1  0  0  0  0
 17 51  1  0  0  0  0
 17 52  1  0  0  0  0
 17 53  1  0  0  0  0
 18 19  1  0  0  0  0
 18 54  1  0  0  0  0
 18 55  1  0  0  0  0
 19 20  1  0  0  0  0
 19 56  1  0  0  0  0
 19 57  1  0  0  0  0
 20 21  1  0  0  0  0
 20 58  1  0  0  0  0
 20 59  1  0  0  0  0
 21 22  1  0  0  0  0
 21 23  1  0  0  0  0
 21 24  1  0  0  0  0
 22 60  1  0  0  0  0
 22 61  1  0  0  0  0
 22 62  1  0  0  0  0
 23 63  1  0  0  0  0
 23 64  1  0  0  0  0
 23 65  1  0  0  0  0
 24 66  1  0  0  0  0
 25 26  1  0  0  0  0
 25 67  1  0  0  0  0
 25 68  1  0  0  0  0
 26 27  1  0  0  0  0
 26 28  1  0  0  0  0
 26 69  1  0  0  0  0
 27 70  1  0  0  0  0
 28 29  1  0  0  0  0
 28 71  1  0  0  0  0
 28 72  1  0  0  0  0
 29 30  1  0  0  0  0
 29 73  1  0  0  0  0
 30 74  1  0  0  0  0
M  END
