REMARK  Name = 
REMARK  13 active torsions:
REMARK  status: ('A' for Active; 'I' for Inactive)
REMARK    1  A    between atoms: C_4  and  C_5
REMARK    2  A    between atoms: C_10  and  C_11
REMARK    3  A    between atoms: C_15  and  C_16
REMARK    4  A    between atoms: C_16  and  C_17
REMARK    5  A    between atoms: C_16  and  C_18
REMARK    6  A    between atoms: C_18  and  C_19
REMARK    7  A    between atoms: C_19  and  C_20
REMARK    8  A    between atoms: C_20  and  C_21
REMARK    9  A    between atoms: C_21  and  C_22
REMARK   10  A    between atoms: C_21  and  C_23
REMARK   11  A    between atoms: C_21  and  O_24
REMARK   12  A    between atoms: C_26  and  O_27
REMARK   13  A    between atoms: C_29  and  O_30
REMARK                            x       y       z     vdW  Elec       q    Type
REMARK                         _______ _______ _______ _____ _____    ______ ____
ROOT
ATOM      1  C   UNL     1       2.296  -3.015   3.430  0.00  0.00    +0.000 C 
ATOM      2  C   UNL     1       3.149  -4.074   3.381  0.00  0.00    +0.000 C 
ATOM      3  C   UNL     1       3.615  -4.996   2.252  0.00  0.00    +0.000 C 
ATOM      4  C   UNL     1       5.039  -5.112   2.290  0.00  0.00    +0.000 C 
ATOM      5  C   UNL     1       5.546  -5.676   3.502  0.00  0.00    +0.000 C 
ATOM      6  C   UNL     1       5.157  -4.782   4.681  0.00  0.00    +0.000 C 
ATOM      7  C   UNL     1       5.643  -5.410   5.977  0.00  0.00    +0.000 C 
ATOM      8  C   UNL     1       3.633  -4.637   4.721  0.00  0.00    +0.000 C 
ATOM      9  C   UNL     1       5.889  -3.161   6.985  0.00  0.00    +0.000 C 
ATOM     10  C   UNL     1       5.406  -2.528   5.690  0.00  0.00    +0.000 C 
ATOM     11  C   UNL     1       5.796  -3.413   4.518  0.00  0.00    +0.000 C 
ENDROOT
BRANCH   1  15
ATOM     12  C   UNL     1       1.001  -0.076  -0.065  0.00  0.00    +0.000 C 
ATOM     13  C   UNL     1       0.321  -0.633   0.973  0.00  0.00    +0.000 C 
ATOM     14  C   UNL     1       0.920  -1.343   2.190  0.00  0.00    +0.000 C 
ATOM     15  C   UNL     1       1.772  -2.401   2.142  0.00  0.00    +0.000 C 
ATOM     16  C   UNL     1       0.444  -0.720   3.385  0.00  0.00    +0.000 C 
ATOM     17  C   UNL     1      -0.974  -0.777   3.548  0.00  0.00    +0.000 C 
ATOM     18  C   UNL     1      -1.650  -0.044   2.386  0.00  0.00    +0.000 C 
ATOM     19  C   UNL     1      -1.208  -0.683   1.065  0.00  0.00    +0.000 C 
BRANCH  17  20
ATOM     20  O   UNL     1      -1.336  -0.156   4.773  0.00  0.00    +0.000 OA
ATOM     21  H   UNL     1      -1.040   0.799   4.763  0.00  0.00    +0.000 HD
ENDBRANCH  17  20
BRANCH  19  22
ATOM     22  O   UNL     1      -1.777   0.028  -0.025  0.00  0.00    +0.000 OA
ATOM     23  H   UNL     1      -1.472   0.980   0.003  0.00  0.00    +0.000 HD
ENDBRANCH  19  22
ENDBRANCH   1  15
BRANCH  11  24
ATOM     24  C   UNL     1       7.309  -3.561   4.476  0.00  0.00    +0.000 C 
ATOM     25  C   UNL     1       7.699  -4.446   3.304  0.00  0.00    +0.000 C 
BRANCH  24  26
ATOM     26  C   UNL     1       7.948  -2.192   4.313  0.00  0.00    +0.000 C 
BRANCH  26  27
ATOM     27  C   UNL     1       7.558  -1.307   5.485  0.00  0.00    +0.000 C 
BRANCH  27  28
ATOM     28  C   UNL     1       8.040  -1.940   6.780  0.00  0.00    +0.000 C 
BRANCH  28  29
ATOM     29  C   UNL     1       9.553  -2.089   6.739  0.00  0.00    +0.000 C 
ATOM     30  C   UNL     1      10.192  -0.720   6.575  0.00  0.00    +0.000 C 
ATOM     31  C   UNL     1      10.035  -2.722   8.034  0.00  0.00    +0.000 C 
BRANCH  29  32
ATOM     32  O   UNL     1       9.917  -2.916   5.644  0.00  0.00    +0.000 OA
ATOM     33  H   UNL     1      10.912  -3.013   5.616  0.00  0.00    +0.000 HD
ENDBRANCH  29  32
ENDBRANCH  28  29
ENDBRANCH  27  28
ENDBRANCH  26  27
ENDBRANCH  24  26
ENDBRANCH  11  24
TORSDOF 9
