REMARK  Name = 
REMARK  13 active torsions:
REMARK  status: ('A' for Active; 'I' for Inactive)
REMARK    1  A    between atoms: C_1  and  O_2
REMARK    2  A    between atoms: O_2  and  C_3
REMARK    3  A    between atoms: C_5  and  C_6
REMARK    4  A    between atoms: C_7  and  C_8
REMARK    5  A    between atoms: C_8  and  C_10
REMARK    6  A    between atoms: C_10  and  O_11
REMARK    7  A    between atoms: O_11  and  C_12
REMARK    8  A    between atoms: C_12  and  C_14
REMARK    9  A    between atoms: C_15  and  C_16
REMARK   10  A    between atoms: C_19  and  O_20
REMARK   11  A    between atoms: C_21  and  O_22
REMARK   12  A    between atoms: O_22  and  C_23
REMARK   13  A    between atoms: C_27  and  O_28
REMARK                            x       y       z     vdW  Elec       q    Type
REMARK                         _______ _______ _______ _____ _____    ______ ____
ROOT
ATOM      1  C   UNL     1      -3.844   7.497  -1.446  0.00  0.00    +0.000 C 
ENDROOT
BRANCH   1   2
ATOM      2  C   UNL     1      -2.425   7.151  -1.022  0.00  0.00    +0.000 C 
ATOM      3  O   UNL     1      -1.593   8.079  -0.773  0.00  0.00    +0.000 OA
BRANCH   2   5
ATOM      4  C   UNL     1      -2.895   4.704  -1.162  0.00  0.00    +0.000 C 
ATOM      5  C   UNL     1      -2.003   5.697  -0.895  0.00  0.00    +0.000 C 
BRANCH   4   8
ATOM      6  C   UNL     1      -0.792   1.624  -0.553  0.00  0.00    +0.000 A 
ATOM      7  C   UNL     1      -1.183   2.938  -0.650  0.00  0.00    +0.000 A 
ATOM      8  C   UNL     1      -2.473   3.249  -1.036  0.00  0.00    +0.000 A 
ATOM      9  C   UNL     1      -3.376   2.249  -1.306  0.00  0.00    +0.000 A 
ATOM     10  C   UNL     1      -3.004   0.929  -1.183  0.00  0.00    +0.000 A 
ATOM     11  C   UNL     1      -1.706   0.578  -0.795  0.00  0.00    +0.000 A 
BRANCH   6  13
ATOM     12  C   UNL     1       0.963   0.046  -0.081  0.00  0.00    +0.000 C 
ATOM     13  O   UNL     1       0.490   1.380  -0.197  0.00  0.00    +0.000 OA
ENDBRANCH   6  13
BRANCH  11  14
ATOM     14  O   UNL     1      -1.324  -0.782  -0.650  0.00  0.00    +0.000 OA
ATOM     15  H   UNL     1      -0.391  -1.012  -0.371  0.00  0.00    +0.000 HD
ENDBRANCH  11  14
ENDBRANCH   4   8
ENDBRANCH   2   5
ENDBRANCH   1   2
BRANCH   1  16
ATOM     16  O   UNL     1      -4.099   6.953  -2.732  0.00  0.00    +0.000 OA
BRANCH  16  17
ATOM     17  C   UNL     1      -3.304   7.348  -3.840  0.00  0.00    +0.000 C 
ATOM     18  O   UNL     1      -2.363   8.187  -3.681  0.00  0.00    +0.000 OA
BRANCH  17  19
ATOM     19  C   UNL     1      -3.577   6.765  -5.218  0.00  0.00    +0.000 C 
ATOM     20  C   UNL     1      -4.584   5.866  -5.388  0.00  0.00    +0.000 C 
BRANCH  20  21
ATOM     21  C   UNL     1      -4.858   5.284  -6.765  0.00  0.00    +0.000 A 
ATOM     22  C   UNL     1      -3.820   4.843  -7.557  0.00  0.00    +0.000 A 
ATOM     23  C   UNL     1      -4.065   4.174  -8.760  0.00  0.00    +0.000 A 
ATOM     24  C   UNL     1      -5.410   3.953  -9.122  0.00  0.00    +0.000 A 
ATOM     25  C   UNL     1      -6.437   4.424  -8.339  0.00  0.00    +0.000 A 
ATOM     26  C   UNL     1      -6.159   5.081  -7.156  0.00  0.00    +0.000 A 
BRANCH  24  27
ATOM     27  O   UNL     1      -5.742   3.294 -10.256  0.00  0.00    +0.000 OA
ATOM     28  H   UNL     1      -5.025   2.936 -10.854  0.00  0.00    +0.000 HD
ENDBRANCH  24  27
BRANCH  25  29
ATOM     29  O   UNL     1      -7.784   4.235  -8.746  0.00  0.00    +0.000 OA
ATOM     30  C   UNL     1      -8.070   3.559  -9.962  0.00  0.00    +0.000 C 
ENDBRANCH  25  29
ENDBRANCH  20  21
ENDBRANCH  17  19
ENDBRANCH  16  17
ENDBRANCH   1  16
TORSDOF 11
