
 OpenBabel03132514253D

 48 49  0  0  0  0  0  0  0  0999 V2000
    0.9505   -0.0837    0.0233 C   0  0  0  0  0  0  0  0  0  0  0  0
    0.4772   -0.1187   -1.3150 O   0  0  0  0  0  0  0  0  0  0  0  0
    0.2786   -1.3061   -1.9311 C   0  0  0  0  0  0  0  0  0  0  0  0
   -0.1793   -1.2795   -3.2268 C   0  0  0  0  0  0  0  0  0  0  0  0
   -0.3753   -2.4608   -3.9159 C   0  0  0  0  0  0  0  0  0  0  0  0
   -0.8620   -2.4253   -5.3554 C   0  0  0  0  0  0  0  0  0  0  0  0
   -1.1037   -1.2322   -5.9625 C   0  0  0  0  0  0  0  0  0  0  0  0
   -1.5904   -1.1967   -7.4020 C   0  0  0  0  0  0  0  0  0  0  0  0
   -1.8163   -0.0821   -7.9692 O   0  0  0  0  0  0  0  0  0  0  0  0
   -1.8071   -2.4944   -8.1632 C   0  0  0  0  0  0  0  0  0  0  0  0
   -0.5840   -3.2126   -8.2322 O   0  0  0  0  0  0  0  0  0  0  0  0
    0.5469   -2.6298   -8.8628 C   0  0  0  0  0  0  0  0  0  0  0  0
    0.4645   -1.4654   -9.3654 O   0  0  0  0  0  0  0  0  0  0  0  0
    1.8561   -3.3985   -8.9366 C   0  0  0  0  0  0  0  0  0  0  0  0
    1.9444   -4.6449   -8.3986 C   0  0  0  0  0  0  0  0  0  0  0  0
    3.2536   -5.4136   -8.4725 C   0  0  0  0  0  0  0  0  0  0  0  0
    4.4399   -4.7784   -8.1776 C   0  0  0  0  0  0  0  0  0  0  0  0
    5.6573   -5.4655   -8.2264 C   0  0  0  0  0  0  0  0  0  0  0  0
    5.6220   -6.8328   -8.5701 C   0  0  0  0  0  0  0  0  0  0  0  0
    6.7467   -7.5823   -8.6193 O   0  0  0  0  0  0  0  0  0  0  0  0
    4.4355   -7.4478   -8.8910 C   0  0  0  0  0  0  0  0  0  0  0  0
    4.4272   -8.8127   -9.2828 O   0  0  0  0  0  0  0  0  0  0  0  0
    5.6444   -9.5415   -9.3430 C   0  0  0  0  0  0  0  0  0  0  0  0
    3.2509   -6.7394   -8.8326 C   0  0  0  0  0  0  0  0  0  0  0  0
   -0.1321   -3.6674   -3.3056 C   0  0  0  0  0  0  0  0  0  0  0  0
    0.2986   -3.7076   -1.9976 C   0  0  0  0  0  0  0  0  0  0  0  0
    0.5075   -2.5309   -1.2707 C   0  0  0  0  0  0  0  0  0  0  0  0
    0.9344   -2.5684    0.0831 O   0  0  0  0  0  0  0  0  0  0  0  0
    0.5938   -0.9439    0.5504 H   0  0  0  0  0  0  0  0  0  0  0  0
    0.5939    0.8028    0.5047 H   0  0  0  0  0  0  0  0  0  0  0  0
    2.0205   -0.0837    0.0233 H   0  0  0  0  0  0  0  0  0  0  0  0
   -0.3843   -0.3431   -3.7022 H   0  0  0  0  0  0  0  0  0  0  0  0
   -1.0145   -3.3389   -5.8912 H   0  0  0  0  0  0  0  0  0  0  0  0
   -0.9512   -0.3186   -5.4267 H   0  0  0  0  0  0  0  0  0  0  0  0
   -2.5404   -3.0867   -7.6569 H   0  0  0  0  0  0  0  0  0  0  0  0
   -2.1479   -2.2745   -9.1533 H   0  0  0  0  0  0  0  0  0  0  0  0
    2.7083   -2.9593   -9.4118 H   0  0  0  0  0  0  0  0  0  0  0  0
    1.0922   -5.0840   -7.9235 H   0  0  0  0  0  0  0  0  0  0  0  0
    4.4299   -3.7433   -7.9069 H   0  0  0  0  0  0  0  0  0  0  0  0
    6.5817   -4.9717   -8.0108 H   0  0  0  0  0  0  0  0  0  0  0  0
    7.6306   -7.1730   -8.3932 H   0  0  0  0  0  0  0  0  0  0  0  0
    6.3049   -9.0753  -10.0439 H   0  0  0  0  0  0  0  0  0  0  0  0
    6.1014   -9.5531   -8.3756 H   0  0  0  0  0  0  0  0  0  0  0  0
    5.4441  -10.5452   -9.6549 H   0  0  0  0  0  0  0  0  0  0  0  0
    2.3274   -7.2253   -9.0690 H   0  0  0  0  0  0  0  0  0  0  0  0
   -0.2776   -4.5784   -3.8476 H   0  0  0  0  0  0  0  0  0  0  0  0
    0.4761   -4.6537   -1.5305 H   0  0  0  0  0  0  0  0  0  0  0  0
    1.0782   -1.7159    0.5858 H   0  0  0  0  0  0  0  0  0  0  0  0
  1  2  1  0  0  0  0
  1 29  1  0  0  0  0
  1 30  1  0  0  0  0
  1 31  1  0  0  0  0
  2  3  1  0  0  0  0
  3  4  1  0  0  0  0
  3 27  2  0  0  0  0
  4  5  2  0  0  0  0
  4 32  1  0  0  0  0
  5  6  1  0  0  0  0
  5 25  1  0  0  0  0
  6  7  2  0  0  0  0
  6 33  1  0  0  0  0
  7  8  1  0  0  0  0
  7 34  1  0  0  0  0
  8  9  2  0  0  0  0
  8 10  1  0  0  0  0
 10 11  1  0  0  0  0
 10 35  1  0  0  0  0
 10 36  1  0  0  0  0
 11 12  1  0  0  0  0
 12 13  2  0  0  0  0
 12 14  1  0  0  0  0
 14 15  2  0  0  0  0
 14 37  1  0  0  0  0
 15 16  1  0  0  0  0
 15 38  1  0  0  0  0
 16 17  1  0  0  0  0
 16 24  2  0  0  0  0
 17 18  2  0  0  0  0
 17 39  1  0  0  0  0
 18 19  1  0  0  0  0
 18 40  1  0  0  0  0
 19 20  1  0  0  0  0
 19 21  2  0  0  0  0
 20 41  1  0  0  0  0
 21 22  1  0  0  0  0
 21 24  1  0  0  0  0
 22 23  1  0  0  0  0
 23 42  1  0  0  0  0
 23 43  1  0  0  0  0
 23 44  1  0  0  0  0
 24 45  1  0  0  0  0
 25 26  2  0  0  0  0
 25 46  1  0  0  0  0
 26 27  1  0  0  0  0
 26 47  1  0  0  0  0
 27 28  1  0  0  0  0
 28 48  1  0  0  0  0
M  END
