REMARK  Name = 
REMARK  13 active torsions:
REMARK  status: ('A' for Active; 'I' for Inactive)
REMARK    1  A    between atoms: C_1  and  O_2
REMARK    2  A    between atoms: O_2  and  C_3
REMARK    3  A    between atoms: C_5  and  C_6
REMARK    4  A    between atoms: C_7  and  C_8
REMARK    5  A    between atoms: C_8  and  C_10
REMARK    6  A    between atoms: C_10  and  O_11
REMARK    7  A    between atoms: O_11  and  C_12
REMARK    8  A    between atoms: C_12  and  C_14
REMARK    9  A    between atoms: C_15  and  C_16
REMARK   10  A    between atoms: C_19  and  O_20
REMARK   11  A    between atoms: C_21  and  O_22
REMARK   12  A    between atoms: O_22  and  C_23
REMARK   13  A    between atoms: C_27  and  O_28
REMARK                            x       y       z     vdW  Elec       q    Type
REMARK                         _______ _______ _______ _____ _____    ______ ____
ROOT
ATOM      1  C   UNL     1      -1.807  -2.494  -8.163  0.00  0.00    +0.000 C 
ENDROOT
BRANCH   1   2
ATOM      2  C   UNL     1      -1.590  -1.197  -7.402  0.00  0.00    +0.000 C 
ATOM      3  O   UNL     1      -1.816  -0.082  -7.969  0.00  0.00    +0.000 OA
BRANCH   2   5
ATOM      4  C   UNL     1      -0.862  -2.425  -5.355  0.00  0.00    +0.000 C 
ATOM      5  C   UNL     1      -1.104  -1.232  -5.963  0.00  0.00    +0.000 C 
BRANCH   4   8
ATOM      6  C   UNL     1       0.279  -1.306  -1.931  0.00  0.00    +0.000 A 
ATOM      7  C   UNL     1      -0.179  -1.280  -3.227  0.00  0.00    +0.000 A 
ATOM      8  C   UNL     1      -0.375  -2.461  -3.916  0.00  0.00    +0.000 A 
ATOM      9  C   UNL     1      -0.132  -3.667  -3.306  0.00  0.00    +0.000 A 
ATOM     10  C   UNL     1       0.299  -3.708  -1.998  0.00  0.00    +0.000 A 
ATOM     11  C   UNL     1       0.507  -2.531  -1.271  0.00  0.00    +0.000 A 
BRANCH   6  13
ATOM     12  C   UNL     1       0.951  -0.084   0.023  0.00  0.00    +0.000 C 
ATOM     13  O   UNL     1       0.477  -0.119  -1.315  0.00  0.00    +0.000 OA
ENDBRANCH   6  13
BRANCH  11  14
ATOM     14  O   UNL     1       0.934  -2.568   0.083  0.00  0.00    +0.000 OA
ATOM     15  H   UNL     1       1.078  -1.716   0.586  0.00  0.00    +0.000 HD
ENDBRANCH  11  14
ENDBRANCH   4   8
ENDBRANCH   2   5
ENDBRANCH   1   2
BRANCH   1  16
ATOM     16  O   UNL     1      -0.584  -3.213  -8.232  0.00  0.00    +0.000 OA
BRANCH  16  17
ATOM     17  C   UNL     1       0.547  -2.630  -8.863  0.00  0.00    +0.000 C 
ATOM     18  O   UNL     1       0.465  -1.465  -9.365  0.00  0.00    +0.000 OA
BRANCH  17  19
ATOM     19  C   UNL     1       1.856  -3.398  -8.937  0.00  0.00    +0.000 C 
ATOM     20  C   UNL     1       1.944  -4.645  -8.399  0.00  0.00    +0.000 C 
BRANCH  20  21
ATOM     21  C   UNL     1       3.254  -5.414  -8.473  0.00  0.00    +0.000 A 
ATOM     22  C   UNL     1       4.440  -4.778  -8.178  0.00  0.00    +0.000 A 
ATOM     23  C   UNL     1       5.657  -5.465  -8.226  0.00  0.00    +0.000 A 
ATOM     24  C   UNL     1       5.622  -6.833  -8.570  0.00  0.00    +0.000 A 
ATOM     25  C   UNL     1       4.436  -7.448  -8.891  0.00  0.00    +0.000 A 
ATOM     26  C   UNL     1       3.251  -6.739  -8.833  0.00  0.00    +0.000 A 
BRANCH  24  27
ATOM     27  O   UNL     1       6.747  -7.582  -8.619  0.00  0.00    +0.000 OA
ATOM     28  H   UNL     1       7.631  -7.173  -8.393  0.00  0.00    +0.000 HD
ENDBRANCH  24  27
BRANCH  25  29
ATOM     29  O   UNL     1       4.427  -8.813  -9.283  0.00  0.00    +0.000 OA
ATOM     30  C   UNL     1       5.644  -9.541  -9.343  0.00  0.00    +0.000 C 
ENDBRANCH  25  29
ENDBRANCH  20  21
ENDBRANCH  17  19
ENDBRANCH  16  17
ENDBRANCH   1  16
TORSDOF 11
