REMARK  Name = 
REMARK  24 active torsions:
REMARK  status: ('A' for Active; 'I' for Inactive)
REMARK    1  A    between atoms: C_1  and  C_2
REMARK    2  A    between atoms: C_2  and  C_3
REMARK    3  A    between atoms: C_3  and  C_4
REMARK    4  A    between atoms: C_4  and  C_5
REMARK    5  A    between atoms: C_5  and  C_6
REMARK    6  A    between atoms: C_6  and  C_7
REMARK    7  A    between atoms: C_7  and  C_8
REMARK    8  A    between atoms: C_8  and  C_9
REMARK    9  A    between atoms: C_9  and  C_10
REMARK   10  A    between atoms: C_10  and  C_11
REMARK   11  A    between atoms: C_11  and  C_12
REMARK   12  A    between atoms: C_12  and  C_13
REMARK   13  A    between atoms: C_13  and  C_14
REMARK   14  A    between atoms: C_15  and  C_16
REMARK   15  A    between atoms: C_16  and  O_17
REMARK   16  A    between atoms: C_16  and  C_18
REMARK   17  A    between atoms: C_18  and  C_19
REMARK   18  A    between atoms: C_18  and  N_21
REMARK   19  A    between atoms: C_19  and  O_20
REMARK   20  A    between atoms: C_22  and  C_24
REMARK   21  A    between atoms: C_24  and  C_25
REMARK   22  A    between atoms: C_25  and  C_26
REMARK   23  A    between atoms: C_26  and  C_27
REMARK   24  A    between atoms: C_27  and  C_28
REMARK                            x       y       z     vdW  Elec       q    Type
REMARK                         _______ _______ _______ _____ _____    ______ ____
ROOT
ATOM      1  C   UNK A   1      -6.859  10.282  -4.920  0.00  0.00    +0.000 C 
ENDROOT
BRANCH   1   2
ATOM      2  O   UNK A   1      -6.386  11.337  -5.745  0.00  0.00    +0.000 OA
ATOM      3  H   UNK A   1      -5.386  11.337  -5.745  0.00  0.00    +0.000 HD
ENDBRANCH   1   2
BRANCH   1   5
ATOM      4  C   UNK A   1      -5.570   8.159  -4.677  0.00  0.00    +0.000 C 
ATOM      5  C   UNK A   1      -6.353   8.953  -5.457  0.00  0.00    +0.000 C 
BRANCH   4   6
ATOM      6  C   UNK A   1      -5.064   6.830  -5.214  0.00  0.00    +0.000 C 
BRANCH   6   7
ATOM      7  C   UNK A   1      -3.544   6.830  -5.214  0.00  0.00    +0.000 C 
BRANCH   7   8
ATOM      8  C   UNK A   1      -3.037   7.029  -3.795  0.00  0.00    +0.000 C 
BRANCH   8   9
ATOM      9  C   UNK A   1      -3.544   5.900  -2.912  0.00  0.00    +0.000 C 
BRANCH   9  10
ATOM     10  C   UNK A   1      -3.037   4.572  -3.449  0.00  0.00    +0.000 C 
BRANCH  10  11
ATOM     11  C   UNK A   1      -1.517   4.572  -3.449  0.00  0.00    +0.000 C 
BRANCH  11  12
ATOM     12  C   UNK A   1      -1.010   4.771  -2.030  0.00  0.00    +0.000 C 
BRANCH  12  13
ATOM     13  C   UNK A   1      -1.517   3.642  -1.147  0.00  0.00    +0.000 C 
BRANCH  13  14
ATOM     14  C   UNK A   1      -1.010   2.313  -1.683  0.00  0.00    +0.000 C 
BRANCH  14  15
ATOM     15  C   UNK A   1       0.510   2.313  -1.683  0.00  0.00    +0.000 C 
BRANCH  15  16
ATOM     16  C   UNK A   1       1.016   2.513  -0.264  0.00  0.00    +0.000 C 
BRANCH  16  18
ATOM     17  C   UNK A   1       1.016   0.055   0.082  0.00  0.00    +0.000 C 
ATOM     18  C   UNK A   1       0.510   1.384   0.618  0.00  0.00    +0.000 C 
ENDBRANCH  16  18
ENDBRANCH  15  16
ENDBRANCH  14  15
ENDBRANCH  13  14
ENDBRANCH  12  13
ENDBRANCH  11  12
ENDBRANCH  10  11
ENDBRANCH   9  10
ENDBRANCH   8   9
ENDBRANCH   7   8
ENDBRANCH   6   7
ENDBRANCH   4   6
ENDBRANCH   1   5
BRANCH   1  19
ATOM     19  C   UNK A   1      -8.379  10.282  -4.920  0.00  0.00    +0.000 C 
BRANCH  19  20
ATOM     20  N   UNK A   1      -8.869  11.567  -4.401  0.00  0.00    +0.000 N 
ATOM     21  C   UNK A   0      -9.714  12.426  -5.244  0.00  0.00    +0.000 C 
ATOM     22  O   UNK A   0     -10.138  13.537  -4.795  0.00  0.00    +0.000 OA
ATOM     23  H   UNK A   1      -8.623  11.863  -3.457  0.00  0.00    +0.000 HD
BRANCH  21  24
ATOM     24  C   UNK A   0     -10.082  11.985  -6.651  0.00  0.00    +0.000 C 
BRANCH  24  25
ATOM     25  C   UNK A   0      -8.815  11.799  -7.471  0.00  0.00    +0.000 C 
BRANCH  25  26
ATOM     26  C   UNK A   0      -7.941  10.739  -6.819  0.00  0.00    +0.000 C 
BRANCH  26  27
ATOM     27  C   UNK A   0      -8.701   9.424  -6.756  0.00  0.00    +0.000 C 
ATOM     28  C   UNK A   0      -9.068   8.983  -8.164  0.00  0.00    +0.000 C 
ENDBRANCH  26  27
ENDBRANCH  25  26
ENDBRANCH  24  25
ENDBRANCH  21  24
ENDBRANCH  19  20
BRANCH  19  29
ATOM     29  C   UNK A   1      -8.886   9.153  -4.038  0.00  0.00    +0.000 C 
BRANCH  29  30
ATOM     30  O   UNK A   1      -8.412   9.340  -2.712  0.00  0.00    +0.000 OA
ATOM     31  H   UNK A   1      -7.412   9.340  -2.712  0.00  0.00    +0.000 HD
ENDBRANCH  29  30
ENDBRANCH  19  29
ENDBRANCH   1  19
TORSDOF 22
