REMARK  Name = 
REMARK  24 active torsions:
REMARK  status: ('A' for Active; 'I' for Inactive)
REMARK    1  A    between atoms: C_1  and  C_2
REMARK    2  A    between atoms: C_2  and  C_3
REMARK    3  A    between atoms: C_3  and  C_4
REMARK    4  A    between atoms: C_4  and  C_5
REMARK    5  A    between atoms: C_5  and  C_6
REMARK    6  A    between atoms: C_6  and  C_7
REMARK    7  A    between atoms: C_7  and  C_8
REMARK    8  A    between atoms: C_8  and  C_9
REMARK    9  A    between atoms: C_9  and  C_10
REMARK   10  A    between atoms: C_10  and  C_11
REMARK   11  A    between atoms: C_11  and  C_12
REMARK   12  A    between atoms: C_12  and  C_13
REMARK   13  A    between atoms: C_13  and  C_14
REMARK   14  A    between atoms: C_15  and  C_16
REMARK   15  A    between atoms: C_16  and  O_17
REMARK   16  A    between atoms: C_16  and  C_18
REMARK   17  A    between atoms: C_18  and  C_19
REMARK   18  A    between atoms: C_18  and  N_21
REMARK   19  A    between atoms: C_19  and  O_20
REMARK   20  A    between atoms: C_22  and  C_24
REMARK   21  A    between atoms: C_24  and  C_25
REMARK   22  A    between atoms: C_25  and  C_26
REMARK   23  A    between atoms: C_26  and  C_27
REMARK   24  A    between atoms: C_27  and  C_28
REMARK                            x       y       z     vdW  Elec       q    Type
REMARK                         _______ _______ _______ _____ _____    ______ ____
ROOT
ATOM      1  C   UNK A   1      -6.823  -5.878   9.684  0.00  0.00    +0.000 C 
ENDROOT
BRANCH   1   2
ATOM      2  O   UNK A   1      -6.350  -6.313  10.950  0.00  0.00    +0.000 OA
ATOM      3  H   UNK A   1      -5.350  -6.313  10.950  0.00  0.00    +0.000 HD
ENDBRANCH   1   2
BRANCH   1   5
ATOM      4  C   UNK A   1      -5.534  -4.229   8.323  0.00  0.00    +0.000 C 
ATOM      5  C   UNK A   1      -6.316  -4.471   9.410  0.00  0.00    +0.000 C 
BRANCH   4   6
ATOM      6  C   UNK A   1      -5.027  -2.823   8.050  0.00  0.00    +0.000 C 
BRANCH   6   7
ATOM      7  C   UNK A   1      -3.507  -2.823   8.050  0.00  0.00    +0.000 C 
BRANCH   7   8
ATOM      8  C   UNK A   1      -3.001  -3.763   6.968  0.00  0.00    +0.000 C 
BRANCH   8   9
ATOM      9  C   UNK A   1      -3.507  -3.297   5.613  0.00  0.00    +0.000 C 
BRANCH   9  10
ATOM     10  C   UNK A   1      -3.001  -1.890   5.339  0.00  0.00    +0.000 C 
BRANCH  10  11
ATOM     11  C   UNK A   1      -1.481  -1.890   5.339  0.00  0.00    +0.000 C 
BRANCH  11  12
ATOM     12  C   UNK A   1      -0.974  -2.831   4.258  0.00  0.00    +0.000 C 
BRANCH  12  13
ATOM     13  C   UNK A   1      -1.481  -2.365   2.903  0.00  0.00    +0.000 C 
BRANCH  13  14
ATOM     14  C   UNK A   1      -0.974  -0.958   2.629  0.00  0.00    +0.000 C 
BRANCH  14  15
ATOM     15  C   UNK A   1       0.546  -0.958   2.629  0.00  0.00    +0.000 C 
BRANCH  15  16
ATOM     16  C   UNK A   1       1.052  -1.898   1.548  0.00  0.00    +0.000 C 
BRANCH  16  18
ATOM     17  C   UNK A   1       1.052  -0.026  -0.081  0.00  0.00    +0.000 C 
ATOM     18  C   UNK A   1       0.546  -1.432   0.193  0.00  0.00    +0.000 C 
ENDBRANCH  16  18
ENDBRANCH  15  16
ENDBRANCH  14  15
ENDBRANCH  13  14
ENDBRANCH  12  13
ENDBRANCH  11  12
ENDBRANCH  10  11
ENDBRANCH   9  10
ENDBRANCH   8   9
ENDBRANCH   7   8
ENDBRANCH   6   7
ENDBRANCH   4   6
ENDBRANCH   1   5
BRANCH   1  19
ATOM     19  C   UNK A   1      -8.343  -5.878   9.684  0.00  0.00    +0.000 C 
BRANCH  19  20
ATOM     20  N   UNK A   1      -8.833  -7.238   9.949  0.00  0.00    +0.000 N 
ATOM     21  C   UNK A   0      -9.678  -7.500  11.123  0.00  0.00    +0.000 C 
ATOM     22  O   UNK A   0     -10.102  -8.676  11.352  0.00  0.00    +0.000 OA
ATOM     23  H   UNK A   1      -8.587  -8.001   9.318  0.00  0.00    +0.000 HD
BRANCH  21  24
ATOM     24  C   UNK A   0     -10.045  -6.363  12.063  0.00  0.00    +0.000 C 
BRANCH  24  25
ATOM     25  C   UNK A   0      -8.779  -5.761  12.649  0.00  0.00    +0.000 C 
BRANCH  25  26
ATOM     26  C   UNK A   0      -7.905  -5.227  11.526  0.00  0.00    +0.000 C 
BRANCH  26  27
ATOM     27  C   UNK A   0      -8.665  -4.159  10.757  0.00  0.00    +0.000 C 
ATOM     28  C   UNK A   0      -9.032  -3.022  11.697  0.00  0.00    +0.000 C 
ENDBRANCH  26  27
ENDBRANCH  25  26
ENDBRANCH  24  25
ENDBRANCH  21  24
ENDBRANCH  19  20
BRANCH  19  29
ATOM     29  C   UNK A   1      -8.850  -5.412   8.329  0.00  0.00    +0.000 C 
BRANCH  29  30
ATOM     30  O   UNK A   1      -8.376  -6.290   7.319  0.00  0.00    +0.000 OA
ATOM     31  H   UNK A   1      -7.376  -6.290   7.319  0.00  0.00    +0.000 HD
ENDBRANCH  29  30
ENDBRANCH  19  29
ENDBRANCH   1  19
TORSDOF 22
