
 OpenBabel03132514253D

 45 50  0  0  0  0  0  0  0  0999 V2000
    1.0789    0.0441   -0.0429 C   0  0  0  0  0  0  0  0  0  0  0  0
    0.5889    1.3893    0.2907 N   0  0  0  0  0  0  0  0  0  0  0  0
    0.3704    1.4879    1.6980 C   0  0  0  0  0  0  0  0  0  0  0  0
    0.1417    2.7214    2.2203 C   0  0  0  0  0  0  0  0  0  0  0  0
    0.4538    3.8765    1.5259 C   0  0  0  0  0  0  0  0  0  0  0  0
    0.2041    5.1121    2.0982 C   0  0  0  0  0  0  0  0  0  0  0  0
   -0.3476    5.1945    3.3612 C   0  0  0  0  0  0  0  0  0  0  0  0
   -0.6638    4.0412    4.0601 C   0  0  0  0  0  0  0  0  0  0  0  0
   -0.4204    2.8075    3.4926 C   0  0  0  0  0  0  0  0  0  0  0  0
   -0.8485    1.7120    4.4448 O   0  0  0  0  0  0  0  0  0  0  0  0
   -0.9730    2.3991    5.8214 C   0  0  0  0  0  0  0  0  0  0  0  0
   -1.2732    3.8628    5.4337 O   0  0  0  0  0  0  0  0  0  0  0  0
    1.0583    3.8243    0.1451 C   0  0  0  0  0  0  0  0  0  0  0  0
    2.1654    4.8606    0.0407 C   0  0  0  0  0  0  0  0  0  0  0  0
    2.7357    4.8146   -1.2590 O   0  0  0  0  0  0  0  0  0  0  0  0
    1.5895    6.2445    0.2926 C   0  0  0  0  0  0  0  0  0  0  0  0
    0.9791    6.2937    1.6838 C   0  0  0  0  0  0  0  0  0  0  0  0
    0.7097    5.0935    2.3987 C   0  0  0  0  0  0  0  0  0  0  0  0
   -0.1138    5.1388    3.5355 C   0  0  0  0  0  0  0  0  0  0  0  0
   -0.4001    6.2816    4.0865 C   0  0  0  0  0  0  0  0  0  0  0  0
    0.1207    7.4683    3.5538 C   0  0  0  0  0  0  0  0  0  0  0  0
    0.6881    7.4630    2.2563 C   0  0  0  0  0  0  0  0  0  0  0  0
    1.6411    2.4322   -0.1104 C   0  0  0  0  0  0  0  0  0  0  0  0
   -1.2416    6.3267    5.2295 O   0  0  0  0  0  0  0  0  0  0  0  0
   -1.5547    7.5739    5.8318 C   0  0  0  0  0  0  0  0  0  0  0  0
   -0.6340    3.9365    4.0835 O   0  0  0  0  0  0  0  0  0  0  0  0
    0.7222   -0.2353   -1.0122 H   0  0  0  0  0  0  0  0  0  0  0  0
    0.7222   -0.6558    0.6837 H   0  0  0  0  0  0  0  0  0  0  0  0
    2.1489    0.0441   -0.0429 H   0  0  0  0  0  0  0  0  0  0  0  0
   -0.5401    0.9517    1.8667 H   0  0  0  0  0  0  0  0  0  0  0  0
    1.2375    1.0918    2.1838 H   0  0  0  0  0  0  0  0  0  0  0  0
    0.4394    6.0063    1.5598 H   0  0  0  0  0  0  0  0  0  0  0  0
   -0.5314    6.1523    3.8014 H   0  0  0  0  0  0  0  0  0  0  0  0
   -0.1035    2.2886    6.4352 H   0  0  0  0  0  0  0  0  0  0  0  0
   -1.7732    1.9781    6.3935 H   0  0  0  0  0  0  0  0  0  0  0  0
    0.3018    4.0323   -0.5825 H   0  0  0  0  0  0  0  0  0  0  0  0
    2.9205    4.6504    0.7691 H   0  0  0  0  0  0  0  0  0  0  0  0
    3.1146    3.9041   -1.4248 H   0  0  0  0  0  0  0  0  0  0  0  0
    2.3689    6.9739    0.2191 H   0  0  0  0  0  0  0  0  0  0  0  0
    0.8344    6.4546   -0.4358 H   0  0  0  0  0  0  0  0  0  0  0  0
    1.1304    4.1650    2.0733 H   0  0  0  0  0  0  0  0  0  0  0  0
    0.0899    8.3732    4.1240 H   0  0  0  0  0  0  0  0  0  0  0  0
    1.8801    2.3247   -1.1478 H   0  0  0  0  0  0  0  0  0  0  0  0
   -2.0521    8.1990    5.1198 H   0  0  0  0  0  0  0  0  0  0  0  0
   -2.1952    7.4127    6.6736 H   0  0  0  0  0  0  0  0  0  0  0  0
  1  2  1  0  0  0  0
  1 27  1  0  0  0  0
  1 28  1  0  0  0  0
  1 29  1  0  0  0  0
  2  3  1  0  0  0  0
  2 23  1  0  0  0  0
  3  4  1  0  0  0  0
  3 30  1  0  0  0  0
  3 31  1  0  0  0  0
  4  5  1  0  0  0  0
  4  9  2  0  0  0  0
  5  6  2  0  0  0  0
  5 13  1  0  0  0  0
  6  7  1  0  0  0  0
  6 32  1  0  0  0  0
  7  8  2  0  0  0  0
  7 33  1  0  0  0  0
  8  9  1  0  0  0  0
  8 12  1  0  0  0  0
  9 10  1  0  0  0  0
 10 11  1  0  0  0  0
 11 12  1  0  0  0  0
 11 34  1  0  0  0  0
 11 35  1  0  0  0  0
 13 14  1  0  0  0  0
 13 23  1  0  0  0  0
 13 36  1  0  0  0  0
 14 15  1  0  0  0  0
 14 16  1  0  0  0  0
 14 37  1  0  0  0  0
 15 38  1  0  0  0  0
 16 17  1  0  0  0  0
 16 39  1  0  0  0  0
 16 40  1  0  0  0  0
 17 18  1  0  0  0  0
 17 22  2  0  0  0  0
 18 19  2  0  0  0  0
 18 41  1  0  0  0  0
 19 20  1  0  0  0  0
 19 26  1  0  0  0  0
 20 21  2  0  0  0  0
 20 24  1  0  0  0  0
 21 22  1  0  0  0  0
 21 42  1  0  0  0  0
 22 23  1  0  0  0  0
 23 43  1  0  0  0  0
 24 25  1  0  0  0  0
 25 26  1  0  0  0  0
 25 44  1  0  0  0  0
 25 45  1  0  0  0  0
M  END
