REMARK  Name = 
REMARK  2 active torsions:
REMARK  status: ('A' for Active; 'I' for Inactive)
REMARK    1  A    between atoms: C_1  and  N_2
REMARK    2  A    between atoms: C_14  and  O_15
REMARK                            x       y       z     vdW  Elec       q    Type
REMARK                         _______ _______ _______ _____ _____    ______ ____
ROOT
ATOM      1  C   UNL     1       0.926  -0.052  -0.044  0.00  0.00    +0.000 C 
ATOM      2  N   UNL     1       0.436  -1.371   0.381  0.00  0.00    +0.000 NA
ATOM      3  C   UNL     1       1.048  -2.371  -0.435  0.00  0.00    +0.000 C 
ATOM      4  C   UNL     1       0.932  -3.667  -0.044  0.00  0.00    +0.000 A 
ATOM      5  C   UNL     1       0.569  -4.010   1.246  0.00  0.00    +0.000 A 
ATOM      6  C   UNL     1       0.465  -5.345   1.599  0.00  0.00    +0.000 A 
ATOM      7  C   UNL     1       0.731  -6.332   0.672  0.00  0.00    +0.000 A 
ATOM      8  C   UNL     1       1.093  -5.994  -0.622  0.00  0.00    +0.000 A 
ATOM      9  C   UNL     1       1.194  -4.666  -0.980  0.00  0.00    +0.000 A 
ATOM     10  O   UNL     1       1.601  -4.557  -2.434  0.00  0.00    +0.000 OA
ATOM     11  C   UNL     1       2.160  -5.948  -2.802  0.00  0.00    +0.000 C 
ATOM     12  O   UNL     1       1.425  -6.873  -1.809  0.00  0.00    +0.000 OA
ATOM     13  C   UNL     1       0.273  -2.958   2.285  0.00  0.00    +0.000 C 
ATOM     14  C   UNL     1       0.904  -3.364   3.607  0.00  0.00    +0.000 C 
ATOM     15  C   UNL     1       0.329  -4.698   4.054  0.00  0.00    +0.000 C 
ATOM     16  C   UNL     1       0.627  -5.756   3.004  0.00  0.00    +0.000 A 
ATOM     17  C   UNL     1       0.634  -5.409   1.624  0.00  0.00    +0.000 A 
ATOM     18  C   UNL     1       0.446  -6.412   0.660  0.00  0.00    +0.000 A 
ATOM     19  C   UNL     1       0.539  -7.665   0.998  0.00  0.00    +0.000 A 
ATOM     20  C   UNL     1       0.837  -8.015   2.321  0.00  0.00    +0.000 A 
ATOM     21  C   UNL     1       0.727  -7.042   3.345  0.00  0.00    +0.000 A 
ATOM     22  C   UNL     1       0.853  -1.614   1.838  0.00  0.00    +0.000 C 
ATOM     23  O   UNL     1       0.338  -8.679   0.024  0.00  0.00    +0.000 OA
ATOM     24  C   UNL     1       0.438 -10.047   0.392  0.00  0.00    +0.000 C 
ATOM     25  O   UNL     1       0.155  -6.060  -0.684  0.00  0.00    +0.000 OA
ENDROOT
BRANCH  14  26
ATOM     26  O   UNL     1       0.625  -2.376   4.588  0.00  0.00    +0.000 OA
ATOM     27  H   UNL     1       1.004  -1.498   4.293  0.00  0.00    +0.000 HD
ENDBRANCH  14  26
TORSDOF 1
