
 OpenBabel03132512093D

 57 59  0  0  0  0  0  0  0  0999 V2000
    0.9232    0.0115    0.0629 C   0  0  0  0  0  0  0  0  0  0  0  0
    0.4498   -0.3673   -1.2211 O   0  0  0  0  0  0  0  0  0  0  0  0
    0.9232    0.5554   -2.1912 C   0  0  0  0  0  0  0  0  0  0  0  0
    0.4165    1.9485   -1.8551 C   0  0  0  0  0  0  0  0  0  0  0  0
    0.9232    2.3539   -0.4806 C   0  0  0  0  0  0  0  0  0  0  0  0
    2.4432    2.3539   -0.4806 C   0  0  0  0  0  0  0  0  0  0  0  0
    3.1782    3.5915   -0.1820 N   0  0  0  0  0  0  0  0  0  0  0  0
    3.0786    1.2840   -0.7387 O   0  0  0  0  0  0  0  0  0  0  0  0
    0.4332    3.7012   -0.1556 N   0  0  0  0  0  0  0  0  0  0  0  0
    0.9232    4.0933    1.1737 C   0  0  0  0  0  0  0  0  0  0  0  0
    0.9232    4.6563   -1.1598 C   0  0  0  0  0  0  0  0  0  0  0  0
    2.4432    4.6563   -1.1598 C   0  0  0  0  0  0  0  0  0  0  0  0
    3.1216    3.4711   -1.1600 C   0  0  0  0  0  0  0  0  0  0  0  0
    4.5349    3.4694   -1.1453 C   0  0  0  0  0  0  0  0  0  0  0  0
    5.3304    2.2883   -1.1435 C   0  0  0  0  0  0  0  0  0  0  0  0
    4.6643    0.9788   -1.1922 N   0  0  0  0  0  0  0  0  0  0  0  0
    5.4654   -0.2538   -1.1913 C   0  0  0  0  0  0  0  0  0  0  0  0
    5.3835   -1.1448   -2.2415 C   0  0  0  0  0  0  0  0  0  0  0  0
    6.1368   -2.3116   -2.2537 C   0  0  0  0  0  0  0  0  0  0  0  0
    6.9876   -2.5782   -1.1822 C   0  0  0  0  0  0  0  0  0  0  0  0
    7.0692   -1.6841   -0.1314 C   0  0  0  0  0  0  0  0  0  0  0  0
    8.1533   -1.9843    1.1834 Cl  0  0  0  0  0  0  0  0  0  0  0  0
    6.3067   -0.5382   -0.1464 C   0  0  0  0  0  0  0  0  0  0  0  0
    6.4100    0.3382    0.8735 F   0  0  0  0  0  0  0  0  0  0  0  0
    6.6400    2.3355   -1.0997 N   0  0  0  0  0  0  0  0  0  0  0  0
    7.2221    3.5740   -1.0795 C   0  0  0  0  0  0  0  0  0  0  0  0
    6.6119    4.7269   -1.1012 N   0  0  0  0  0  0  0  0  0  0  0  0
    5.2410    4.6934   -1.1321 C   0  0  0  0  0  0  0  0  0  0  0  0
    4.5096    5.9018   -1.1599 C   0  0  0  0  0  0  0  0  0  0  0  0
    3.1426    5.8784   -1.1597 C   0  0  0  0  0  0  0  0  0  0  0  0
    2.4198    7.1007   -1.1594 O   0  0  0  0  0  0  0  0  0  0  0  0
    0.9999    7.0858   -1.1592 C   0  0  0  0  0  0  0  0  0  0  0  0
    0.5665   -0.6837    0.7939 H   0  0  0  0  0  0  0  0  0  0  0  0
    0.5665    0.9922    0.2995 H   0  0  0  0  0  0  0  0  0  0  0  0
    1.9932    0.0115    0.0629 H   0  0  0  0  0  0  0  0  0  0  0  0
    1.9932    0.5554   -2.1912 H   0  0  0  0  0  0  0  0  0  0  0  0
    0.5665    0.2699   -3.1588 H   0  0  0  0  0  0  0  0  0  0  0  0
    0.7732    2.6437   -2.5861 H   0  0  0  0  0  0  0  0  0  0  0  0
   -0.6535    1.9485   -1.8551 H   0  0  0  0  0  0  0  0  0  0  0  0
    0.5665    1.6587    0.2504 H   0  0  0  0  0  0  0  0  0  0  0  0
    4.1982    3.5915   -0.1820 H   0  0  0  0  0  0  0  0  0  0  0  0
    2.6682    4.4502    0.0251 H   0  0  0  0  0  0  0  0  0  0  0  0
    1.9932    4.0933    1.1737 H   0  0  0  0  0  0  0  0  0  0  0  0
    0.5665    5.0740    1.4103 H   0  0  0  0  0  0  0  0  0  0  0  0
    0.5665    3.3981    1.9047 H   0  0  0  0  0  0  0  0  0  0  0  0
    0.5665    4.3709   -2.1274 H   0  0  0  0  0  0  0  0  0  0  0  0
    0.5665    5.6370   -0.9232 H   0  0  0  0  0  0  0  0  0  0  0  0
    2.5844    2.5458   -1.1711 H   0  0  0  0  0  0  0  0  0  0  0  0
    3.6463    0.9253   -1.2266 H   0  0  0  0  0  0  0  0  0  0  0  0
    4.7284   -0.9333   -3.0606 H   0  0  0  0  0  0  0  0  0  0  0  0
    6.0651   -2.9957   -3.0733 H   0  0  0  0  0  0  0  0  0  0  0  0
    7.5756   -3.4721   -1.1732 H   0  0  0  0  0  0  0  0  0  0  0  0
    8.2912    3.5994   -1.0419 H   0  0  0  0  0  0  0  0  0  0  0  0
    5.0270    6.8382   -1.1811 H   0  0  0  0  0  0  0  0  0  0  0  0
    0.6484    6.5779   -2.0329 H   0  0  0  0  0  0  0  0  0  0  0  0
    0.6486    6.5776   -0.2856 H   0  0  0  0  0  0  0  0  0  0  0  0
    0.6327    8.0909   -1.1589 H   0  0  0  0  0  0  0  0  0  0  0  0
  1  2  1  0  0  0  0
  1 33  1  0  0  0  0
  1 34  1  0  0  0  0
  1 35  1  0  0  0  0
  2  3  1  0  0  0  0
  3  4  1  0  0  0  0
  3 36  1  0  0  0  0
  3 37  1  0  0  0  0
  4  5  1  0  0  0  0
  4 38  1  0  0  0  0
  4 39  1  0  0  0  0
  5  6  1  0  0  0  0
  5  9  1  0  0  0  0
  5 40  1  0  0  0  0
  6  7  1  0  0  0  0
  6  8  2  0  0  0  0
  7 41  1  0  0  0  0
  7 42  1  0  0  0  0
  9 10  1  0  0  0  0
  9 11  1  0  0  0  0
 10 43  1  0  0  0  0
 10 44  1  0  0  0  0
 10 45  1  0  0  0  0
 11 12  1  0  0  0  0
 11 46  1  0  0  0  0
 11 47  1  0  0  0  0
 12 13  1  0  0  0  0
 12 30  2  0  0  0  0
 13 14  2  0  0  0  0
 13 48  1  0  0  0  0
 14 15  1  0  0  0  0
 14 28  1  0  0  0  0
 15 16  1  0  0  0  0
 15 25  2  0  0  0  0
 16 17  1  0  0  0  0
 16 49  1  0  0  0  0
 17 18  1  0  0  0  0
 17 23  2  0  0  0  0
 18 19  2  0  0  0  0
 18 50  1  0  0  0  0
 19 20  1  0  0  0  0
 19 51  1  0  0  0  0
 20 21  2  0  0  0  0
 20 52  1  0  0  0  0
 21 22  1  0  0  0  0
 21 23  1  0  0  0  0
 23 24  1  0  0  0  0
 25 26  1  0  0  0  0
 26 27  2  0  0  0  0
 26 53  1  0  0  0  0
 27 28  1  0  0  0  0
 28 29  2  0  0  0  0
 29 30  1  0  0  0  0
 29 54  1  0  0  0  0
 30 31  1  0  0  0  0
 31 32  1  0  0  0  0
 32 55  1  0  0  0  0
 32 56  1  0  0  0  0
 32 57  1  0  0  0  0
M  END
