REMARK  Name = 
REMARK  3 active torsions:
REMARK  status: ('A' for Active; 'I' for Inactive)
REMARK    1  A    between atoms: C_1  and  O_2
REMARK    2  A    between atoms: O_2  and  C_3
REMARK    3  A    between atoms: C_8  and  N_9
REMARK                            x       y       z     vdW  Elec       q    Type
REMARK                         _______ _______ _______ _____ _____    ______ ____
ROOT
ATOM      1  N   UNL     1       3.033   1.609  -0.271  0.00  0.00    +0.000 N 
ATOM      2  C   UNL     1       3.858   1.734   0.937  0.00  0.00    +0.000 C 
ATOM      3  C   UNL     1       3.775   0.488   1.797  0.00  0.00    +0.000 C 
ATOM      4  N   UNL     1       4.226  -0.684   1.038  0.00  0.00    +0.000 N 
ATOM      5  C   UNL     1       5.323  -1.583   1.423  0.00  0.00    +0.000 A 
ATOM      6  N   UNL     1       6.405  -1.756   0.634  0.00  0.00    +0.000 NA
ATOM      7  C   UNL     1       7.424  -2.581   0.994  0.00  0.00    +0.000 A 
ATOM      8  N   UNL     1       7.409  -3.259   2.164  0.00  0.00    +0.000 NA
ATOM      9  C   UNL     1       6.321  -3.125   3.028  0.00  0.00    +0.000 A 
ATOM     10  N   UNL     1       5.991  -3.638   4.224  0.00  0.00    +0.000 NA
ATOM     11  N   UNL     1       4.819  -3.151   4.577  0.00  0.00    +0.000 N 
ATOM     12  C   UNL     1       4.360  -2.328   3.645  0.00  0.00    +0.000 A 
ATOM     13 BR   UNL     1       2.656  -1.361   3.714  0.00  0.00    +0.000 Br
ATOM     14  C   UNL     1       5.248  -2.268   2.654  0.00  0.00    +0.000 A 
ATOM     15  C   UNL     1       3.402  -0.809  -0.170  0.00  0.00    +0.000 C 
ATOM     16  C   UNL     1       3.485   0.437  -1.031  0.00  0.00    +0.000 C 
ATOM     17  H   UNL     1       4.333  -3.376   5.445  0.00  0.00    +0.000 HD
ENDROOT
BRANCH   1  23
ATOM     18  C   UNL     1       0.788   2.239  -0.918  0.00  0.00    +0.000 A 
ATOM     19  C   UNL     1      -0.213   3.172  -1.138  0.00  0.00    +0.000 A 
ATOM     20  C   UNL     1       0.266   4.485  -1.355  0.00  0.00    +0.000 A 
ATOM     21  C   UNL     1       1.477   4.904  -1.036  0.00  0.00    +0.000 A 
ATOM     22  C   UNL     1       2.403   3.935  -0.763  0.00  0.00    +0.000 A 
ATOM     23  C   UNL     1       2.036   2.615  -0.663  0.00  0.00    +0.000 A 
BRANCH  18  25
ATOM     24  C   UNL     1       0.918  -0.016   0.055  0.00  0.00    +0.000 C 
ATOM     25  O   UNL     1       0.445   0.862  -0.956  0.00  0.00    +0.000 OA
ENDBRANCH  18  25
ENDBRANCH   1  23
TORSDOF 2
