
 OpenBabel03132514253D

 64 69  0  0  0  0  0  0  0  0999 V2000
    0.9505   -0.0300    0.0816 C   0  0  0  0  0  0  0  0  0  0  0  0
    0.4605    0.3509   -1.2510 N   0  0  0  0  0  0  0  0  0  0  0  0
    0.8410    1.7533   -1.8589 S   0  0  0  0  0  0  0  0  0  0  0  0
    0.3223    2.8642   -0.9428 O   0  0  0  0  0  0  0  0  0  0  0  0
    2.5912    1.8771   -1.9981 N   0  0  0  0  0  0  0  0  0  0  0  0
    2.9463    3.1859   -2.5654 C   0  0  0  0  0  0  0  0  0  0  0  0
    0.0920    1.9238   -3.4978 C   0  0  0  0  0  0  0  0  0  0  0  0
   -0.0165    3.1825   -4.0658 C   0  0  0  0  0  0  0  0  0  0  0  0
   -0.8573    3.2278   -5.2029 C   0  0  0  0  0  0  0  0  0  0  0  0
   -1.2269    2.1712   -5.9037 C   0  0  0  0  0  0  0  0  0  0  0  0
   -1.8373    2.3028   -7.2895 C   0  0  0  0  0  0  0  0  0  0  0  0
   -1.1027    2.9010   -8.3000 C   0  0  0  0  0  0  0  0  0  0  0  0
   -1.8628    3.2190   -9.4502 C   0  0  0  0  0  0  0  0  0  0  0  0
   -3.0452    2.7030   -9.7327 C   0  0  0  0  0  0  0  0  0  0  0  0
   -3.6557    2.8121  -11.1204 C   0  0  0  0  0  0  0  0  0  0  0  0
   -2.9928    2.2778  -12.2074 N   0  0  0  0  0  0  0  0  0  0  0  0
   -3.5518    2.3941  -13.4836 C   0  0  0  0  0  0  0  0  0  0  0  0
   -3.1336    1.9593  -14.8153 N   0  0  0  0  0  0  0  0  0  0  0  0
   -4.0452    2.3360  -15.6635 C   0  0  0  0  0  0  0  0  0  0  0  0
   -4.0011    2.0984  -17.0627 O   0  0  0  0  0  0  0  0  0  0  0  0
   -2.9015    1.4020  -17.6303 C   0  0  0  0  0  0  0  0  0  0  0  0
   -2.8738    0.1893  -17.0543 C   0  0  0  0  0  0  0  0  0  0  0  0
   -2.0234    0.2273  -15.8745 O   0  0  0  0  0  0  0  0  0  0  0  0
   -1.0531    1.4075  -16.0725 C   0  0  0  0  0  0  0  0  0  0  0  0
    0.3195    0.8711  -16.4217 C   0  0  0  0  0  0  0  0  0  0  0  0
    0.6022   -0.3131  -15.6908 O   0  0  0  0  0  0  0  0  0  0  0  0
    0.3224    0.6280  -17.7613 C   0  0  0  0  0  0  0  0  0  0  0  0
   -0.5520    1.5730  -18.4391 O   0  0  0  0  0  0  0  0  0  0  0  0
   -1.5617    2.0664  -17.3856 C   0  0  0  0  0  0  0  0  0  0  0  0
   -5.0748    3.0084  -14.9982 N   0  0  0  0  0  0  0  0  0  0  0  0
   -4.7831    3.0522  -13.6501 C   0  0  0  0  0  0  0  0  0  0  0  0
   -5.4367    3.5832  -12.5440 C   0  0  0  0  0  0  0  0  0  0  0  0
   -4.8800    3.4589  -11.2909 C   0  0  0  0  0  0  0  0  0  0  0  0
   -5.7291    4.1287   -9.8771 Cl  0  0  0  0  0  0  0  0  0  0  0  0
   -3.6906    2.0654   -8.7098 C   0  0  0  0  0  0  0  0  0  0  0  0
   -3.0595    1.8336   -7.5116 C   0  0  0  0  0  0  0  0  0  0  0  0
   -1.0309    0.9525   -5.3156 C   0  0  0  0  0  0  0  0  0  0  0  0
   -0.3323    0.8405   -4.1377 C   0  0  0  0  0  0  0  0  0  0  0  0
    0.5938   -1.0086    0.3265 H   0  0  0  0  0  0  0  0  0  0  0  0
    0.5938    0.6714    0.8066 H   0  0  0  0  0  0  0  0  0  0  0  0
    2.0205   -0.0300    0.0816 H   0  0  0  0  0  0  0  0  0  0  0  0
    3.0133    1.7810   -1.0745 H   0  0  0  0  0  0  0  0  0  0  0  0
    2.5836    3.9625   -1.9249 H   0  0  0  0  0  0  0  0  0  0  0  0
    4.0103    3.2611   -2.6500 H   0  0  0  0  0  0  0  0  0  0  0  0
    2.5035    3.2867   -3.5342 H   0  0  0  0  0  0  0  0  0  0  0  0
    0.4897    4.0425   -3.6798 H   0  0  0  0  0  0  0  0  0  0  0  0
   -1.2189    4.1846   -5.5168 H   0  0  0  0  0  0  0  0  0  0  0  0
   -0.0553    3.1042   -8.2181 H   0  0  0  0  0  0  0  0  0  0  0  0
   -1.4511    3.9267  -10.1390 H   0  0  0  0  0  0  0  0  0  0  0  0
   -3.0411    1.3743  -18.6908 H   0  0  0  0  0  0  0  0  0  0  0  0
   -3.8661   -0.0900  -16.7675 H   0  0  0  0  0  0  0  0  0  0  0  0
   -2.4863   -0.5260  -17.7493 H   0  0  0  0  0  0  0  0  0  0  0  0
   -1.0071    2.0410  -15.2114 H   0  0  0  0  0  0  0  0  0  0  0  0
    1.0696    1.5941  -16.1777 H   0  0  0  0  0  0  0  0  0  0  0  0
   -0.0863   -1.0071  -15.9014 H   0  0  0  0  0  0  0  0  0  0  0  0
   -0.0294   -0.3667  -17.9391 H   0  0  0  0  0  0  0  0  0  0  0  0
    1.3182    0.7328  -18.1386 H   0  0  0  0  0  0  0  0  0  0  0  0
   -1.6506    3.1327  -17.3849 H   0  0  0  0  0  0  0  0  0  0  0  0
   -5.9065    3.4026  -15.4379 H   0  0  0  0  0  0  0  0  0  0  0  0
   -6.3720    4.0883  -12.6664 H   0  0  0  0  0  0  0  0  0  0  0  0
   -4.7018    1.7424   -8.8444 H   0  0  0  0  0  0  0  0  0  0  0  0
   -3.5573    1.2698   -6.7505 H   0  0  0  0  0  0  0  0  0  0  0  0
   -1.4272    0.0734   -5.7793 H   0  0  0  0  0  0  0  0  0  0  0  0
   -0.1284   -0.1286   -3.7324 H   0  0  0  0  0  0  0  0  0  0  0  0
  1  2  1  0  0  0  0
  1 39  1  0  0  0  0
  1 40  1  0  0  0  0
  1 41  1  0  0  0  0
  2  3  2  0  0  0  0
  3  4  2  0  0  0  0
  3  5  1  0  0  0  0
  3  7  1  0  0  0  0
  5  6  1  0  0  0  0
  5 42  1  0  0  0  0
  6 43  1  0  0  0  0
  6 44  1  0  0  0  0
  6 45  1  0  0  0  0
  7  8  1  0  0  0  0
  7 38  2  0  0  0  0
  8  9  2  0  0  0  0
  8 46  1  0  0  0  0
  9 10  1  0  0  0  0
  9 47  1  0  0  0  0
 10 11  1  0  0  0  0
 10 37  2  0  0  0  0
 11 12  1  0  0  0  0
 11 36  2  0  0  0  0
 12 13  2  0  0  0  0
 12 48  1  0  0  0  0
 13 14  1  0  0  0  0
 13 49  1  0  0  0  0
 14 15  1  0  0  0  0
 14 35  2  0  0  0  0
 15 16  1  0  0  0  0
 15 33  2  0  0  0  0
 16 17  2  0  0  0  0
 17 18  1  0  0  0  0
 17 31  1  0  0  0  0
 18 19  2  0  0  0  0
 19 20  1  0  0  0  0
 19 30  1  0  0  0  0
 20 21  1  0  0  0  0
 21 22  1  0  0  0  0
 21 29  1  0  0  0  0
 21 50  1  0  0  0  0
 22 23  1  0  0  0  0
 22 51  1  0  0  0  0
 22 52  1  0  0  0  0
 23 24  1  0  0  0  0
 24 25  1  0  0  0  0
 24 29  1  0  0  0  0
 24 53  1  0  0  0  0
 25 26  1  0  0  0  0
 25 27  1  0  0  0  0
 25 54  1  0  0  0  0
 26 55  1  0  0  0  0
 27 28  1  0  0  0  0
 27 56  1  0  0  0  0
 27 57  1  0  0  0  0
 28 29  1  0  0  0  0
 29 58  1  0  0  0  0
 30 31  1  0  0  0  0
 30 59  1  0  0  0  0
 31 32  2  0  0  0  0
 32 33  1  0  0  0  0
 32 60  1  0  0  0  0
 33 34  1  0  0  0  0
 35 36  1  0  0  0  0
 35 61  1  0  0  0  0
 36 62  1  0  0  0  0
 37 38  1  0  0  0  0
 37 63  1  0  0  0  0
 38 64  1  0  0  0  0
M  END
