REMARK  Name = 
REMARK  8 active torsions:
REMARK  status: ('A' for Active; 'I' for Inactive)
REMARK    1  A    between atoms: C_1  and  O_2
REMARK    2  A    between atoms: O_2  and  C_3
REMARK    3  A    between atoms: C_6  and  C_7
REMARK    4  A    between atoms: C_13  and  C_14
REMARK    5  A    between atoms: C_17  and  C_18
REMARK    6  A    between atoms: C_26  and  N_27
REMARK    7  A    between atoms: C_32  and  O_33
REMARK    8  A    between atoms: O_33  and  C_34
REMARK                            x       y       z     vdW  Elec       q    Type
REMARK                         _______ _______ _______ _____ _____    ______ ____
ROOT
ATOM      1  C   UNL     1       2.045  -1.037   6.336  0.00  0.00    +0.000 A 
ATOM      2  C   UNL     1       1.385  -1.967   7.077  0.00  0.00    +0.000 A 
ATOM      3  N   UNL     1       1.960  -2.100   8.329  0.00  0.00    +0.000 N 
ATOM      4  C   UNL     1       3.016  -1.208   8.402  0.00  0.00    +0.000 A 
ATOM      5  N   UNL     1       3.776  -1.032   9.481  0.00  0.00    +0.000 NA
ATOM      6  C   UNL     1       4.704  -0.079   9.344  0.00  0.00    +0.000 A 
ATOM      7  C   UNL     1       4.867   0.696   8.195  0.00  0.00    +0.000 A 
ATOM      8  C   UNL     1       4.064   0.478   7.090  0.00  0.00    +0.000 A 
ATOM      9  C   UNL     1       3.099  -0.515   7.177  0.00  0.00    +0.000 A 
ATOM     10  H   UNL     1       1.661  -2.741   9.064  0.00  0.00    +0.000 HD
ENDROOT
BRANCH   1  14
ATOM     11  C   UNL     1       0.816   0.076   2.400  0.00  0.00    +0.000 A 
ATOM     12  C   UNL     1      -0.132   0.049   3.409  0.00  0.00    +0.000 A 
ATOM     13  C   UNL     1       0.415  -0.115   4.704  0.00  0.00    +0.000 A 
ATOM     14  C   UNL     1       1.633  -0.562   4.952  0.00  0.00    +0.000 A 
ATOM     15  C   UNL     1       2.502  -0.574   3.897  0.00  0.00    +0.000 A 
ATOM     16  C   UNL     1       2.071  -0.297   2.623  0.00  0.00    +0.000 A 
BRANCH  11  18
ATOM     17  C   UNL     1       0.946   0.063  -0.056  0.00  0.00    +0.000 C 
ATOM     18  O   UNL     1       0.473   0.650   1.147  0.00  0.00    +0.000 OA
ENDBRANCH  11  18
BRANCH  16  19
ATOM     19  O   UNL     1       2.975  -0.411   1.533  0.00  0.00    +0.000 OA
ATOM     20  C   UNL     1       2.536  -0.126   0.213  0.00  0.00    +0.000 C 
ENDBRANCH  16  19
ENDBRANCH   1  14
BRANCH   7  21
ATOM     21  C   UNL     1       5.930   1.781   8.158  0.00  0.00    +0.000 A 
ATOM     22  C   UNL     1       5.543   3.094   7.944  0.00  0.00    +0.000 A 
ATOM     23  C   UNL     1       6.616   3.965   7.638  0.00  0.00    +0.000 A 
ATOM     24  C   UNL     1       7.888   3.699   7.875  0.00  0.00    +0.000 A 
ATOM     25  C   UNL     1       8.196   2.395   8.147  0.00  0.00    +0.000 A 
ATOM     26  C   UNL     1       7.207   1.459   8.330  0.00  0.00    +0.000 A 
BRANCH  24  27
ATOM     27  C   UNL     1       8.952   4.784   7.846  0.00  0.00    +0.000 C 
ATOM     28  O   UNL     1       8.627   5.986   7.589  0.00  0.00    +0.000 OA
ATOM     29  N   UNL     1      10.356   4.444   8.116  0.00  0.00    +0.000 N 
ATOM     30  C   UNL     1      11.130   3.486   7.305  0.00  0.00    +0.000 C 
ATOM     31  C   UNL     1      11.649   2.379   8.194  0.00  0.00    +0.000 C 
ATOM     32  O   UNL     1      12.450   2.905   9.252  0.00  0.00    +0.000 OA
ATOM     33  C   UNL     1      11.675   3.803  10.048  0.00  0.00    +0.000 C 
ATOM     34  C   UNL     1      11.176   4.974   9.224  0.00  0.00    +0.000 C 
ENDBRANCH  24  27
BRANCH  25  35
ATOM     35  N   UNL     1       9.605   1.989   8.246  0.00  0.00    +0.000 N 
ATOM     36  H   UNL     1      10.345   2.678   8.112  0.00  0.00    +0.000 HD
ATOM     37  H   UNL     1       9.843   1.018   8.449  0.00  0.00    +0.000 HD
ENDBRANCH  25  35
ENDBRANCH   7  21
TORSDOF 6
