
 OpenBabel03132514253D

 37 40  0  0  0  0  0  0  0  0999 V2000
    2.4920    0.0040   -0.0140 C   0  0  0  0  0  0  0  0  0  0  0  0
    0.9910   -0.0050    0.0130 C   0  0  0  0  0  0  0  0  0  0  0  0
    0.2580   -1.1970    0.0060 C   0  0  0  0  0  0  0  0  0  0  0  0
   -1.1080   -1.2020    0.0010 C   0  0  0  0  0  0  0  0  0  0  0  0
   -1.7990    0.0100   -0.0130 C   0  0  0  0  0  0  0  0  0  0  0  0
   -1.1090    1.2060    0.0020 C   0  0  0  0  0  0  0  0  0  0  0  0
   -1.8588    2.5282    0.0150 C   0  0  0  0  0  0  0  0  0  0  0  0
   -1.7098    3.4707   -0.9906 N   0  0  0  0  0  0  0  0  0  0  0  0
   -2.4636    4.5097   -0.7490 C   0  0  0  0  0  0  0  0  0  0  0  0
   -2.5331    5.5929   -1.5309 N   0  0  0  0  0  0  0  0  0  0  0  0
   -3.4095    4.3988    0.7095 S   0  0  0  0  0  0  0  0  0  0  0  0
   -2.7094    2.8593    1.0037 C   0  0  0  0  0  0  0  0  0  0  0  0
   -3.0090    1.9901    2.2141 C   0  0  0  0  0  0  0  0  0  0  0  0
   -1.9057    1.6822    3.0261 C   0  0  0  0  0  0  0  0  0  0  0  0
   -2.0878    1.0173    4.2093 C   0  0  0  0  0  0  0  0  0  0  0  0
   -3.4257    0.6922    4.5517 C   0  0  0  0  0  0  0  0  0  0  0  0
   -3.6542    0.0358    5.7316 N   0  0  0  0  0  0  0  0  0  0  0  0
   -4.8960   -0.2515    6.0218 C   0  0  0  0  0  0  0  0  0  0  0  0
   -5.9899    0.0810    5.2189 C   0  0  0  0  0  0  0  0  0  0  0  0
   -5.7698    0.7335    4.0573 C   0  0  0  0  0  0  0  0  0  0  0  0
   -4.4628    1.0587    3.6772 C   0  0  0  0  0  0  0  0  0  0  0  0
   -4.2489    1.7065    2.4979 N   0  0  0  0  0  0  0  0  0  0  0  0
    0.2750    1.1840    0.0050 C   0  0  0  0  0  0  0  0  0  0  0  0
    2.8673   -0.5130    0.8443 H   0  0  0  0  0  0  0  0  0  0  0  0
    2.8357   -0.4833   -0.9024 H   0  0  0  0  0  0  0  0  0  0  0  0
    2.8429    1.0148   -0.0032 H   0  0  0  0  0  0  0  0  0  0  0  0
    0.7818   -2.1300    0.0045 H   0  0  0  0  0  0  0  0  0  0  0  0
   -1.6438   -2.1281    0.0078 H   0  0  0  0  0  0  0  0  0  0  0  0
   -2.8688    0.0127   -0.0355 H   0  0  0  0  0  0  0  0  0  0  0  0
   -3.1457    6.3675   -1.2759 H   0  0  0  0  0  0  0  0  0  0  0  0
   -1.9734    5.6441   -2.3822 H   0  0  0  0  0  0  0  0  0  0  0  0
   -0.9210    1.9675    2.7199 H   0  0  0  0  0  0  0  0  0  0  0  0
   -1.2650    0.7570    4.8418 H   0  0  0  0  0  0  0  0  0  0  0  0
   -5.0872   -0.7759    6.9346 H   0  0  0  0  0  0  0  0  0  0  0  0
   -6.9841   -0.1768    5.5190 H   0  0  0  0  0  0  0  0  0  0  0  0
   -6.5932    1.0014    3.4287 H   0  0  0  0  0  0  0  0  0  0  0  0
    0.8088    2.1113    0.0010 H   0  0  0  0  0  0  0  0  0  0  0  0
  1  2  1  0  0  0  0
  1 24  1  0  0  0  0
  1 25  1  0  0  0  0
  1 26  1  0  0  0  0
  2  3  1  0  0  0  0
  2 23  2  0  0  0  0
  3  4  2  0  0  0  0
  3 27  1  0  0  0  0
  4  5  1  0  0  0  0
  4 28  1  0  0  0  0
  5  6  2  0  0  0  0
  5 29  1  0  0  0  0
  6  7  1  0  0  0  0
  6 23  1  0  0  0  0
  7  8  1  0  0  0  0
  7 12  2  0  0  0  0
  8  9  2  0  0  0  0
  9 10  1  0  0  0  0
  9 11  1  0  0  0  0
 10 30  1  0  0  0  0
 10 31  1  0  0  0  0
 11 12  1  0  0  0  0
 12 13  1  0  0  0  0
 13 14  1  0  0  0  0
 13 22  2  0  0  0  0
 14 15  2  0  0  0  0
 14 32  1  0  0  0  0
 15 16  1  0  0  0  0
 15 33  1  0  0  0  0
 16 17  1  0  0  0  0
 16 21  2  0  0  0  0
 17 18  2  0  0  0  0
 18 19  1  0  0  0  0
 18 34  1  0  0  0  0
 19 20  2  0  0  0  0
 19 35  1  0  0  0  0
 20 21  1  0  0  0  0
 20 36  1  0  0  0  0
 21 22  1  0  0  0  0
 23 37  1  0  0  0  0
M  END
