REMARK  Name = 
REMARK  10 active torsions:
REMARK  status: ('A' for Active; 'I' for Inactive)
REMARK    1  A    between atoms: C_1  and  O_2
REMARK    2  A    between atoms: O_2  and  C_3
REMARK    3  A    between atoms: N_10  and  C_11
REMARK    4  A    between atoms: C_21  and  C_22
REMARK    5  A    between atoms: C_22  and  N_23
REMARK    6  A    between atoms: N_23  and  C_24
REMARK    7  A    between atoms: N_23  and  C_25
REMARK    8  A    between atoms: C_25  and  C_26
REMARK    9  A    between atoms: C_25  and  C_28
REMARK   10  A    between atoms: C_26  and  O_27
REMARK                            x       y       z     vdW  Elec       q    Type
REMARK                         _______ _______ _______ _____ _____    ______ ____
ROOT
ATOM      1  C   UNL     1       0.807   1.569   1.792  0.00  0.00    +0.000 A 
ATOM      2  C   UNL     1      -0.188   1.981   2.634  0.00  0.00    +0.000 A 
ATOM      3  C   UNL     1       0.097   2.255   3.991  0.00  0.00    +0.000 A 
ATOM      4  N   UNL     1      -0.914   2.638   4.836  0.00  0.00    +0.000 NA
ATOM      5  C   UNL     1      -0.578   2.877   6.073  0.00  0.00    +0.000 A 
ATOM      6  N   UNL     1       0.677   2.802   6.614  0.00  0.00    +0.000 NA
ATOM      7  C   UNL     1       1.655   2.450   5.814  0.00  0.00    +0.000 A 
ATOM      8  N   UNL     1       3.023   2.381   6.347  0.00  0.00    +0.000 N 
ATOM      9  C   UNL     1       1.429   2.134   4.444  0.00  0.00    +0.000 A 
ATOM     10  C   UNL     1       2.444   1.721   3.551  0.00  0.00    +0.000 A 
ATOM     11  C   UNL     1       2.131   1.438   2.252  0.00  0.00    +0.000 A 
ATOM     12  H   UNL     1       3.795   2.110   5.738  0.00  0.00    +0.000 HD
ENDROOT
BRANCH   8  13
ATOM     13  C   UNL     1       3.280   2.703   7.758  0.00  0.00    +0.000 A 
ATOM     14  C   UNL     1       4.060   3.792   8.086  0.00  0.00    +0.000 A 
ATOM     15  C   UNL     1       4.245   4.171   9.410  0.00  0.00    +0.000 A 
ATOM     16  C   UNL     1       3.627   3.432  10.417  0.00  0.00    +0.000 A 
ATOM     17  C   UNL     1       2.845   2.341  10.087  0.00  0.00    +0.000 A 
ATOM     18 CL   UNL     1       2.039   1.442  11.326  0.00  0.00    +0.000 Cl
ATOM     19  C   UNL     1       2.684   1.989   8.766  0.00  0.00    +0.000 A 
ATOM     20  F   UNL     1       1.901   0.936   8.453  0.00  0.00    +0.000 F 
ENDBRANCH   8  13
BRANCH   1  22
ATOM     21  C   UNL     1       0.937  -0.066  -0.040  0.00  0.00    +0.000 C 
ATOM     22  O   UNL     1       0.464   1.170   0.473  0.00  0.00    +0.000 OA
ENDBRANCH   1  22
BRANCH  11  23
ATOM     23  C   UNL     1       3.220   0.978   1.296  0.00  0.00    +0.000 C 
BRANCH  23  24
ATOM     24  N   UNL     1       4.255   2.017   1.197  0.00  0.00    +0.000 NA
ATOM     25  C   UNL     1       5.309   1.572   0.273  0.00  0.00    +0.000 C 
BRANCH  24  26
ATOM     26  C   UNL     1       3.655   3.261   0.694  0.00  0.00    +0.000 C 
BRANCH  26  27
ATOM     27  C   UNL     1       2.566   3.720   1.650  0.00  0.00    +0.000 C 
ATOM     28  N   UNL     1       2.669   5.033   2.304  0.00  0.00    +0.000 N 
ATOM     29  O   UNL     1       1.567   2.970   1.883  0.00  0.00    +0.000 OA
ATOM     30  H   UNL     1       1.938   5.341   2.945  0.00  0.00    +0.000 HD
ATOM     31  H   UNL     1       3.470   5.635   2.117  0.00  0.00    +0.000 HD
ENDBRANCH  26  27
BRANCH  26  32
ATOM     32  C   UNL     1       3.053   3.013  -0.679  0.00  0.00    +0.000 C 
BRANCH  32  33
ATOM     33  O   UNL     1       2.052   2.010  -0.584  0.00  0.00    +0.000 OA
ATOM     34  H   UNL     1       2.461   1.164  -0.241  0.00  0.00    +0.000 HD
ENDBRANCH  32  33
ENDBRANCH  26  32
ENDBRANCH  24  26
ENDBRANCH  23  24
ENDBRANCH  11  23
TORSDOF 8
