REMARK  Name = 
REMARK  7 active torsions:
REMARK  status: ('A' for Active; 'I' for Inactive)
REMARK    1  A    between atoms: C_1  and  C_2
REMARK    2  A    between atoms: C_7  and  C_8
REMARK    3  A    between atoms: C_8  and  O_10
REMARK    4  A    between atoms: C_13  and  C_14
REMARK    5  A    between atoms: C_17  and  C_18
REMARK    6  A    between atoms: C_18  and  C_19
REMARK    7  A    between atoms: C_19  and  O_20
REMARK                            x       y       z     vdW  Elec       q    Type
REMARK                         _______ _______ _______ _____ _____    ______ ____
ROOT
ATOM      1  C   UNL     1       0.978  -0.076  -0.061  0.00  0.00    +0.000 C 
ATOM      2  C   UNL     1       0.471   1.304   0.323  0.00  0.00    +0.000 A 
ATOM      3  C   UNL     1       1.164   2.385  -0.175  0.00  0.00    +0.000 A 
ATOM      4  C   UNL     1       0.793   3.675   0.188  0.00  0.00    +0.000 A 
ATOM      5  N   UNL     1       1.276   4.929  -0.126  0.00  0.00    +0.000 N 
ATOM      6  C   UNL     1       0.506   5.890   0.535  0.00  0.00    +0.000 A 
ATOM      7  C   UNL     1      -0.423   5.314   1.240  0.00  0.00    +0.000 A 
ATOM      8  C   UNL     1      -0.293   3.869   1.060  0.00  0.00    +0.000 A 
ATOM      9  C   UNL     1      -0.993   2.765   1.555  0.00  0.00    +0.000 A 
ATOM     10  C   UNL     1      -0.611   1.492   1.183  0.00  0.00    +0.000 A 
ATOM     11  H   UNL     1       2.066   5.122  -0.741  0.00  0.00    +0.000 HD
ENDROOT
BRANCH  10  12
ATOM     12  C   UNL     1      -1.373   0.288   1.713  0.00  0.00    +0.000 A 
ATOM     13  C   UNL     1      -0.642  -0.663   2.478  0.00  0.00    +0.000 A 
ATOM     14  C   UNL     1      -1.223  -1.908   2.767  0.00  0.00    +0.000 A 
ATOM     15  C   UNL     1      -2.498  -2.090   2.583  0.00  0.00    +0.000 A 
ATOM     16  C   UNL     1      -3.295  -1.041   2.105  0.00  0.00    +0.000 A 
ATOM     17  C   UNL     1      -2.681   0.099   1.532  0.00  0.00    +0.000 A 
BRANCH  15  18
ATOM     18  C   UNL     1      -3.123  -3.442   2.885  0.00  0.00    +0.000 C 
ATOM     19  C   UNL     1      -4.644  -3.349   2.746  0.00  0.00    +0.000 C 
ATOM     20  C   UNL     1      -3.893  -4.542   2.151  0.00  0.00    +0.000 C 
BRANCH  18  21
ATOM     21  C   UNL     1      -1.902  -3.702   3.752  0.00  0.00    +0.000 C 
BRANCH  21  22
ATOM     22  O   UNL     1      -0.731  -3.637   2.952  0.00  0.00    +0.000 OA
ATOM     23  H   UNL     1      -0.781  -4.329   2.231  0.00  0.00    +0.000 HD
ENDBRANCH  21  22
ENDBRANCH  18  21
ENDBRANCH  15  18
ENDBRANCH  10  12
BRANCH   7  24
ATOM     24  C   UNL     1      -1.460   6.019   2.100  0.00  0.00    +0.000 C 
ATOM     25  O   UNL     1      -1.468   7.287   2.174  0.00  0.00    +0.000 OA
BRANCH  24  26
ATOM     26  O   UNL     1      -2.420   5.259   2.820  0.00  0.00    +0.000 OA
ATOM     27  H   UNL     1      -3.102   5.723   3.385  0.00  0.00    +0.000 HD
ENDBRANCH  24  26
ENDBRANCH   7  24
TORSDOF 6
