
 OpenBabel03132512083D

 39 42  0  0  0  0  0  0  0  0999 V2000
    1.0161   -0.0333   -0.0929 O   0  0  0  0  0  0  0  0  0  0  0  0
    2.2870   -0.0333   -0.0929 C   0  0  0  0  0  0  0  0  0  0  0  0
    2.9970   -1.0067    0.6585 O   0  0  0  0  0  0  0  0  0  0  0  0
    3.0470    1.0087   -0.8973 C   0  0  0  0  0  0  0  0  0  0  0  0
    4.1460    0.7269   -1.5338 N   0  0  0  0  0  0  0  0  0  0  0  0
    4.7006    1.8895   -2.0772 N   0  0  0  0  0  0  0  0  0  0  0  0
    3.8938    2.9624   -1.7571 C   0  0  0  0  0  0  0  0  0  0  0  0
    3.9567    4.3244   -2.0282 C   0  0  0  0  0  0  0  0  0  0  0  0
    2.9700    5.1646   -1.5633 C   0  0  0  0  0  0  0  0  0  0  0  0
    3.0492    6.9054   -1.9261 Cl  0  0  0  0  0  0  0  0  0  0  0  0
    1.9086    4.6623   -0.8100 C   0  0  0  0  0  0  0  0  0  0  0  0
    0.8347    5.6057   -0.2932 C   0  0  0  0  0  0  0  0  0  0  0  0
    0.0317    6.3938   -1.1640 C   0  0  0  0  0  0  0  0  0  0  0  0
   -0.7479    7.4330   -0.6303 C   0  0  0  0  0  0  0  0  0  0  0  0
   -0.9502    7.5018    0.6526 C   0  0  0  0  0  0  0  0  0  0  0  0
   -1.7845    8.6336    1.2299 C   0  0  0  0  0  0  0  0  0  0  0  0
   -1.1124    9.5688    2.2426 C   0  0  0  0  0  0  0  0  0  0  0  0
   -2.3868    9.4400    3.1525 C   0  0  0  0  0  0  0  0  0  0  0  0
   -3.2273   10.5199    2.8092 O   0  0  0  0  0  0  0  0  0  0  0  0
   -2.7332    8.1735    2.3501 C   0  0  0  0  0  0  0  0  0  0  0  0
   -0.3999    6.5339    1.5034 C   0  0  0  0  0  0  0  0  0  0  0  0
    0.6190    5.6765    1.0215 C   0  0  0  0  0  0  0  0  0  0  0  0
    1.8292    3.3122   -0.5317 C   0  0  0  0  0  0  0  0  0  0  0  0
    2.8233    2.4497   -1.0034 C   0  0  0  0  0  0  0  0  0  0  0  0
    3.9970   -1.0067    0.6585 H   0  0  0  0  0  0  0  0  0  0  0  0
    5.5617    1.9371   -2.6219 H   0  0  0  0  0  0  0  0  0  0  0  0
    4.7715    4.7196   -2.5981 H   0  0  0  0  0  0  0  0  0  0  0  0
    0.0219    6.1966   -2.2156 H   0  0  0  0  0  0  0  0  0  0  0  0
   -1.1756    8.1683   -1.2794 H   0  0  0  0  0  0  0  0  0  0  0  0
   -2.1266    9.0343    0.2985 H   0  0  0  0  0  0  0  0  0  0  0  0
   -0.7386   10.5268    1.9470 H   0  0  0  0  0  0  0  0  0  0  0  0
   -0.2169    9.1777    2.6785 H   0  0  0  0  0  0  0  0  0  0  0  0
   -2.3791    9.4207    4.2223 H   0  0  0  0  0  0  0  0  0  0  0  0
   -3.2809   10.5972    1.8136 H   0  0  0  0  0  0  0  0  0  0  0  0
   -2.6258    7.2041    2.7902 H   0  0  0  0  0  0  0  0  0  0  0  0
   -3.7599    8.1087    2.0556 H   0  0  0  0  0  0  0  0  0  0  0  0
   -0.7475    6.4431    2.5113 H   0  0  0  0  0  0  0  0  0  0  0  0
    1.2064    5.0949    1.7008 H   0  0  0  0  0  0  0  0  0  0  0  0
    1.0115    2.9283    0.0417 H   0  0  0  0  0  0  0  0  0  0  0  0
  1  2  2  0  0  0  0
  2  3  1  0  0  0  0
  2  4  1  0  0  0  0
  3 25  1  0  0  0  0
  4  5  2  0  0  0  0
  4 24  1  0  0  0  0
  5  6  1  0  0  0  0
  6  7  1  0  0  0  0
  6 26  1  0  0  0  0
  7  8  1  0  0  0  0
  7 24  2  0  0  0  0
  8  9  2  0  0  0  0
  8 27  1  0  0  0  0
  9 10  1  0  0  0  0
  9 11  1  0  0  0  0
 11 12  1  0  0  0  0
 11 23  2  0  0  0  0
 12 13  1  0  0  0  0
 12 22  2  0  0  0  0
 13 14  2  0  0  0  0
 13 28  1  0  0  0  0
 14 15  1  0  0  0  0
 14 29  1  0  0  0  0
 15 16  1  0  0  0  0
 15 21  2  0  0  0  0
 16 17  1  0  0  0  0
 16 20  1  0  0  0  0
 16 30  1  0  0  0  0
 17 18  1  0  0  0  0
 17 31  1  0  0  0  0
 17 32  1  0  0  0  0
 18 19  1  0  0  0  0
 18 20  1  0  0  0  0
 18 33  1  0  0  0  0
 19 34  1  0  0  0  0
 20 35  1  0  0  0  0
 20 36  1  0  0  0  0
 21 22  1  0  0  0  0
 21 37  1  0  0  0  0
 22 38  1  0  0  0  0
 23 24  1  0  0  0  0
 23 39  1  0  0  0  0
M  END
