
 OpenBabel03132512093D

 41 44  0  0  0  0  0  0  0  0999 V2000
   -2.1310   -0.0460   -0.0610 C   0  0  0  0  0  0  0  0  0  0  0  0
   -0.6720   -0.0750    0.0590 N   0  0  0  0  0  0  0  0  0  0  0  0
    0.1330   -1.1670    0.0270 C   0  0  0  0  0  0  0  0  0  0  0  0
    1.4220   -0.6860   -0.0340 C   0  0  0  0  0  0  0  0  0  0  0  0
    2.6550   -1.4842   -0.0929 N   0  0  0  0  0  0  0  0  0  0  0  0
    3.9620   -0.8143   -0.1547 C   0  0  0  0  0  0  0  0  0  0  0  0
    5.0280   -1.5044   -0.2056 O   0  0  0  0  0  0  0  0  0  0  0  0
    4.0385    0.7038   -0.1576 C   0  0  0  0  0  0  0  0  0  0  0  0
    3.2724    1.4493    0.7237 C   0  0  0  0  0  0  0  0  0  0  0  0
    3.3337    2.8271    0.7157 C   0  0  0  0  0  0  0  0  0  0  0  0
    4.1716    3.4790   -0.1843 C   0  0  0  0  0  0  0  0  0  0  0  0
    4.4406    4.8120   -0.4253 C   0  0  0  0  0  0  0  0  0  0  0  0
    5.3069    4.9476   -1.4467 C   0  0  0  0  0  0  0  0  0  0  0  0
    5.7117    3.6978   -1.8742 N   0  0  0  0  0  0  0  0  0  0  0  0
    4.9470    2.7206   -1.0741 C   0  0  0  0  0  0  0  0  0  0  0  0
    4.8743    1.3317   -1.0553 C   0  0  0  0  0  0  0  0  0  0  0  0
    6.6620    3.4177   -2.8650 C   0  0  0  0  0  0  0  0  0  0  0  0
    7.8464    4.3072   -3.1353 C   0  0  0  0  0  0  0  0  0  0  0  0
    8.1176    5.2043   -1.9307 C   0  0  0  0  0  0  0  0  0  0  0  0
    7.2575    6.4500   -1.8808 N   0  0  0  0  0  0  0  0  0  0  0  0
    5.7761    6.2372   -2.0699 C   0  0  0  0  0  0  0  0  0  0  0  0
    5.0139    7.0492   -2.6823 O   0  0  0  0  0  0  0  0  0  0  0  0
    1.3300    0.7080   -0.0290 C   0  0  0  0  0  0  0  0  0  0  0  0
    0.0260    1.0960    0.0240 N   0  0  0  0  0  0  0  0  0  0  0  0
   -2.5433    0.5316    0.7398 H   0  0  0  0  0  0  0  0  0  0  0  0
   -2.4032    0.3961   -0.9966 H   0  0  0  0  0  0  0  0  0  0  0  0
   -2.5127   -1.0445   -0.0139 H   0  0  0  0  0  0  0  0  0  0  0  0
   -0.1716   -2.1926    0.0454 H   0  0  0  0  0  0  0  0  0  0  0  0
    2.6036   -2.5029   -0.0909 H   0  0  0  0  0  0  0  0  0  0  0  0
    2.6271    0.9515    1.4170 H   0  0  0  0  0  0  0  0  0  0  0  0
    2.7380    3.3939    1.4003 H   0  0  0  0  0  0  0  0  0  0  0  0
    4.0179    5.6264    0.1252 H   0  0  0  0  0  0  0  0  0  0  0  0
    5.4649    0.7535   -1.7348 H   0  0  0  0  0  0  0  0  0  0  0  0
    7.1349    2.5433   -2.4692 H   0  0  0  0  0  0  0  0  0  0  0  0
    6.1203    3.3589   -3.7858 H   0  0  0  0  0  0  0  0  0  0  0  0
    7.6357    4.9201   -3.9867 H   0  0  0  0  0  0  0  0  0  0  0  0
    8.7075    3.7012   -3.3256 H   0  0  0  0  0  0  0  0  0  0  0  0
    9.1324    5.5333   -2.0134 H   0  0  0  0  0  0  0  0  0  0  0  0
    7.9383    4.6364   -1.0418 H   0  0  0  0  0  0  0  0  0  0  0  0
    7.6558    7.3766   -1.7285 H   0  0  0  0  0  0  0  0  0  0  0  0
    2.1654    1.3757   -0.0621 H   0  0  0  0  0  0  0  0  0  0  0  0
  1  2  1  0  0  0  0
  1 25  1  0  0  0  0
  1 26  1  0  0  0  0
  1 27  1  0  0  0  0
  2  3  1  0  0  0  0
  2 24  1  0  0  0  0
  3  4  2  0  0  0  0
  3 28  1  0  0  0  0
  4  5  1  0  0  0  0
  4 23  1  0  0  0  0
  5  6  1  0  0  0  0
  5 29  1  0  0  0  0
  6  7  2  0  0  0  0
  6  8  1  0  0  0  0
  8  9  1  0  0  0  0
  8 16  2  0  0  0  0
  9 10  2  0  0  0  0
  9 30  1  0  0  0  0
 10 11  1  0  0  0  0
 10 31  1  0  0  0  0
 11 12  1  0  0  0  0
 11 15  2  0  0  0  0
 12 13  2  0  0  0  0
 12 32  1  0  0  0  0
 13 14  1  0  0  0  0
 13 21  1  0  0  0  0
 14 15  1  0  0  0  0
 14 17  1  0  0  0  0
 15 16  1  0  0  0  0
 16 33  1  0  0  0  0
 17 18  1  0  0  0  0
 17 34  1  0  0  0  0
 17 35  1  0  0  0  0
 18 19  1  0  0  0  0
 18 36  1  0  0  0  0
 18 37  1  0  0  0  0
 19 20  1  0  0  0  0
 19 38  1  0  0  0  0
 19 39  1  0  0  0  0
 20 21  1  0  0  0  0
 20 40  1  0  0  0  0
 21 22  2  0  0  0  0
 23 24  2  0  0  0  0
 23 41  1  0  0  0  0
M  END
