REMARK  Name = 
REMARK  7 active torsions:
REMARK  status: ('A' for Active; 'I' for Inactive)
REMARK    1  A    between atoms: O_1  and  C_2
REMARK    2  A    between atoms: C_2  and  C_3
REMARK    3  A    between atoms: C_6  and  C_7
REMARK    4  A    between atoms: C_10  and  C_11
REMARK    5  A    between atoms: C_15  and  O_16
REMARK    6  A    between atoms: O_16  and  C_17
REMARK    7  A    between atoms: C_21  and  O_22
REMARK                            x       y       z     vdW  Elec       q    Type
REMARK                         _______ _______ _______ _____ _____    ______ ____
ROOT
ATOM      1  C   UNL     1       3.924  10.067  -0.597  0.00  0.00    +0.000 A 
ATOM      2  N   UNL     1       4.105  10.744  -1.786  0.00  0.00    +0.000 NA
ATOM      3  C   UNL     1       4.590  12.055  -1.769  0.00  0.00    +0.000 A 
ATOM      4  N   UNL     1       4.893  13.037  -2.809  0.00  0.00    +0.000 NA
ATOM      5  C   UNL     1       5.325  14.117  -2.227  0.00  0.00    +0.000 A 
ATOM      6  N   UNL     1       5.341  13.943  -0.840  0.00  0.00    +0.000 N 
ATOM      7  C   UNL     1       4.889  12.674  -0.542  0.00  0.00    +0.000 A 
ATOM      8  C   UNL     1       4.700  11.977   0.646  0.00  0.00    +0.000 A 
ATOM      9  C   UNL     1       4.217  10.688   0.618  0.00  0.00    +0.000 A 
ATOM     10 CL   UNL     1       3.963   9.806   2.143  0.00  0.00    +0.000 Cl
ATOM     11  H   UNL     1       5.638  14.642  -0.158  0.00  0.00    +0.000 HD
ENDROOT
BRANCH   1  15
ATOM     12  C   UNL     1       2.343   6.107  -0.836  0.00  0.00    +0.000 A 
ATOM     13  C   UNL     1       3.493   6.407  -1.546  0.00  0.00    +0.000 A 
ATOM     14  C   UNL     1       4.051   7.668  -1.227  0.00  0.00    +0.000 A 
ATOM     15  C   UNL     1       3.403   8.639  -0.611  0.00  0.00    +0.000 A 
ATOM     16  C   UNL     1       2.238   8.292   0.015  0.00  0.00    +0.000 A 
ATOM     17  C   UNL     1       1.698   7.038  -0.143  0.00  0.00    +0.000 A 
BRANCH  12  21
ATOM     18  C   UNL     1       0.974   2.072  -1.142  0.00  0.00    +0.000 A 
ATOM     19  C   UNL     1       2.268   2.304  -0.705  0.00  0.00    +0.000 A 
ATOM     20  C   UNL     1       2.546   3.664  -0.431  0.00  0.00    +0.000 A 
ATOM     21  C   UNL     1       1.822   4.679  -0.868  0.00  0.00    +0.000 A 
ATOM     22  C   UNL     1       0.579   4.377  -1.351  0.00  0.00    +0.000 A 
ATOM     23  C   UNL     1       0.187   3.071  -1.524  0.00  0.00    +0.000 A 
BRANCH  18  24
ATOM     24  C   UNL     1       0.468   0.640  -1.187  0.00  0.00    +0.000 C 
BRANCH  24  25
ATOM     25  O   UNL     1       0.941  -0.065  -0.048  0.00  0.00    +0.000 OA
ATOM     26  H   UNL     1       1.941  -0.065  -0.048  0.00  0.00    +0.000 HD
ENDBRANCH  24  25
ENDBRANCH  18  24
ENDBRANCH  12  21
ENDBRANCH   1  15
BRANCH   5  27
ATOM     27  O   UNL     1       5.724  15.300  -2.902  0.00  0.00    +0.000 OA
BRANCH  27  28
ATOM     28  C   UNL     1       5.665  15.363  -4.320  0.00  0.00    +0.000 C 
ATOM     29  C   UNL     1       4.403  15.169  -4.733  0.00  0.00    +0.000 C 
ATOM     30  O   UNL     1       4.156  13.745  -4.902  0.00  0.00    +0.000 OA
ATOM     31  C   UNL     1       5.531  13.086  -5.122  0.00  0.00    +0.000 C 
ATOM     32  C   UNL     1       5.679  12.718  -6.583  0.00  0.00    +0.000 C 
ATOM     33  C   UNL     1       6.099  13.837  -7.235  0.00  0.00    +0.000 C 
ATOM     34  O   UNL     1       6.920  14.648  -6.349  0.00  0.00    +0.000 OA
ATOM     35  C   UNL     1       6.524  14.263  -4.911  0.00  0.00    +0.000 C 
BRANCH  32  36
ATOM     36  O   UNL     1       4.449  12.252  -7.116  0.00  0.00    +0.000 OA
ATOM     37  H   UNL     1       3.754  12.965  -7.025  0.00  0.00    +0.000 HD
ENDBRANCH  32  36
ENDBRANCH  27  28
ENDBRANCH   5  27
TORSDOF 7
