REMARK  Name = 
REMARK  13 active torsions:
REMARK  status: ('A' for Active; 'I' for Inactive)
REMARK    1  A    between atoms: C_1  and  C_2
REMARK    2  A    between atoms: C_2  and  O_3
REMARK    3  A    between atoms: O_3  and  C_4
REMARK    4  A    between atoms: C_8  and  C_10
REMARK    5  A    between atoms: C_10  and  C_11
REMARK    6  A    between atoms: C_13  and  O_14
REMARK    7  A    between atoms: O_14  and  C_15
REMARK    8  A    between atoms: C_16  and  S_17
REMARK    9  A    between atoms: S_17  and  C_18
REMARK   10  A    between atoms: C_22  and  O_23
REMARK   11  A    between atoms: O_23  and  C_24
REMARK   12  A    between atoms: C_26  and  N_27
REMARK   13  A    between atoms: C_28  and  C_29
REMARK                            x       y       z     vdW  Elec       q    Type
REMARK                         _______ _______ _______ _____ _____    ______ ____
ROOT
ATOM      1  C   UNL     1       2.418  -0.249  -2.668  0.00  0.00    +0.000 A 
ATOM      2  N   UNL     1       2.951  -0.046  -3.925  0.00  0.00    +0.000 NA
ATOM      3  C   UNL     1       4.252  -0.174  -4.137  0.00  0.00    +0.000 A 
ATOM      4  N   UNL     1       4.782   0.044  -5.490  0.00  0.00    +0.000 N 
ATOM      5  C   UNL     1       3.872   0.400  -6.588  0.00  0.00    +0.000 C 
ATOM      6  O   UNL     1       4.331   0.588  -7.758  0.00  0.00    +0.000 OA
ATOM      7  C   UNL     1       5.085  -0.493  -3.161  0.00  0.00    +0.000 A 
ATOM      8  C   UNL     1       4.620  -0.711  -1.878  0.00  0.00    +0.000 A 
ATOM      9  C   UNL     1       3.262  -0.592  -1.621  0.00  0.00    +0.000 A 
ATOM     10  H   UNL     1       5.782  -0.051  -5.667  0.00  0.00    +0.000 HD
ENDROOT
BRANCH   8  11
ATOM     11  N   UNL     1       5.553  -1.066  -0.799  0.00  0.00    +0.000 N 
ATOM     12  H   UNL     1       6.551  -1.152  -0.995  0.00  0.00    +0.000 HD
ATOM     13  H   UNL     1       5.204  -1.226   0.146  0.00  0.00    +0.000 HD
ENDBRANCH   8  11
BRANCH   9  14
ATOM     14  C   UNL     1       2.712  -0.830  -0.225  0.00  0.00    +0.000 C 
ATOM     15  N   UNL     1       2.255  -1.028   0.934  0.00  0.00    +0.000 NA
ENDBRANCH   9  14
BRANCH   1  16
ATOM     16  O   UNL     1       1.022  -0.111  -2.448  0.00  0.00    +0.000 OA
BRANCH  16  18
ATOM     17  C   UNL     1       1.055  -0.069  -0.047  0.00  0.00    +0.000 C 
ATOM     18  C   UNL     1       0.548   0.601  -1.314  0.00  0.00    +0.000 C 
ENDBRANCH  16  18
ENDBRANCH   1  16
BRANCH   5  19
ATOM     19  C   UNL     1       2.382   0.542  -6.324  0.00  0.00    +0.000 C 
BRANCH  19  20
ATOM     20  C   UNL     1       1.832  -0.776  -5.803  0.00  0.00    +0.000 A 
ATOM     21  C   UNL     1       2.660  -1.921  -5.964  0.00  0.00    +0.000 A 
ATOM     22  C   UNL     1       2.121  -3.198  -5.738  0.00  0.00    +0.000 A 
ATOM     23  C   UNL     1       0.978  -3.324  -5.130  0.00  0.00    +0.000 A 
ATOM     24  C   UNL     1       0.287  -2.187  -4.691  0.00  0.00    +0.000 A 
ATOM     25  C   UNL     1       0.663  -0.910  -5.174  0.00  0.00    +0.000 A 
BRANCH  23  26
ATOM     26  S   UNL     1       0.279  -4.970  -4.852  0.00  0.00    +0.000 S 
ATOM     27  C   UNL     1       0.021  -5.793  -6.443  0.00  0.00    +0.000 C 
ATOM     28  O   UNL     1       1.244  -5.797  -4.000  0.00  0.00    +0.000 OA
ATOM     29  O   UNL     1      -1.061  -4.839  -4.123  0.00  0.00    +0.000 OA
ENDBRANCH  23  26
BRANCH  22  30
ATOM     30  O   UNL     1       2.824  -4.353  -6.173  0.00  0.00    +0.000 OA
ATOM     31  C   UNL     1       4.072  -4.216  -6.837  0.00  0.00    +0.000 C 
ENDBRANCH  22  30
BRANCH  25  32
ATOM     32  O   UNL     1      -0.191   0.210  -4.992  0.00  0.00    +0.000 OA
ATOM     33  C   UNL     1       0.196   1.485  -5.482  0.00  0.00    +0.000 C 
ENDBRANCH  25  32
ENDBRANCH  19  20
ENDBRANCH   5  19
TORSDOF 9
