REMARK  Name = 
REMARK  4 active torsions:
REMARK  status: ('A' for Active; 'I' for Inactive)
REMARK    1  A    between atoms: C_1  and  O_2
REMARK    2  A    between atoms: O_2  and  C_3
REMARK    3  A    between atoms: C_10  and  C_11
REMARK    4  A    between atoms: C_12  and  C_13
REMARK                            x       y       z     vdW  Elec       q    Type
REMARK                         _______ _______ _______ _____ _____    ______ ____
ROOT
ATOM      1  C   UNL     1       0.797   1.728   1.667  0.00  0.00    +0.000 A 
ATOM      2  C   UNL     1      -0.132   2.438   2.413  0.00  0.00    +0.000 A 
ATOM      3  C   UNL     1       0.244   3.006   3.626  0.00  0.00    +0.000 A 
ATOM      4  C   UNL     1       1.554   2.855   4.016  0.00  0.00    +0.000 A 
ATOM      5  C   UNL     1       2.527   2.198   3.262  0.00  0.00    +0.000 A 
ATOM      6  C   UNL     1       2.120   1.609   2.071  0.00  0.00    +0.000 A 
ATOM      7  C   UNL     1       3.783   2.265   4.011  0.00  0.00    +0.000 C 
ATOM      8  C   UNL     1       5.044   1.881   3.748  0.00  0.00    +0.000 C 
ATOM      9  C   UNL     1       3.442   2.981   5.278  0.00  0.00    +0.000 C 
ATOM     10  O   UNL     1       4.187   3.255   6.221  0.00  0.00    +0.000 OA
ATOM     11  N   UNL     1       2.127   3.305   5.210  0.00  0.00    +0.000 N 
ATOM     12  H   UNL     1       1.622   3.811   5.937  0.00  0.00    +0.000 HD
ENDROOT
BRANCH   8  13
ATOM     13  C   UNL     1       5.376   1.219   2.421  0.00  0.00    +0.000 A 
ATOM     14  C   UNL     1       5.225   1.723   1.160  0.00  0.00    +0.000 A 
ATOM     15  N   UNL     1       5.471   0.749   0.203  0.00  0.00    +0.000 NA
ATOM     16  C   UNL     1       5.772  -0.310   0.910  0.00  0.00    +0.000 A 
ATOM     17  S   UNL     1       6.232  -1.943   0.572  0.00  0.00    +0.000 S 
ATOM     18  C   UNL     1       6.334  -2.255   2.284  0.00  0.00    +0.000 A 
ATOM     19  C   UNL     1       6.035  -1.202   3.047  0.00  0.00    +0.000 A 
ATOM     20  N   UNL     1       5.727  -0.095   2.255  0.00  0.00    +0.000 N 
BRANCH  14  21
ATOM     21  C   UNL     1       4.838   3.160   0.848  0.00  0.00    +0.000 A 
ATOM     22  C   UNL     1       3.690   3.449   0.136  0.00  0.00    +0.000 A 
ATOM     23  C   UNL     1       3.403   4.775  -0.196  0.00  0.00    +0.000 A 
ATOM     24  C   UNL     1       4.292   5.753   0.231  0.00  0.00    +0.000 A 
ATOM     25  C   UNL     1       5.400   5.380   0.958  0.00  0.00    +0.000 A 
ATOM     26  N   UNL     1       5.691   4.111   1.260  0.00  0.00    +0.000 NA
ENDBRANCH  14  21
ENDBRANCH   8  13
BRANCH   1  28
ATOM     27  C   UNL     1       0.927  -0.068  -0.009  0.00  0.00    +0.000 C 
ATOM     28  O   UNL     1       0.454   1.210   0.390  0.00  0.00    +0.000 OA
ENDBRANCH   1  28
TORSDOF 3
