
 OpenBabel03132512093D

 70 74  0  0  0  0  0  0  0  0999 V2000
    1.0494   -0.0627    0.0602 C   0  0  0  0  0  0  0  0  0  0  0  0
    0.4460    1.0937    1.3150 S   0  0  0  0  0  0  0  0  0  0  0  0
    0.9562    2.5016    0.9987 O   0  0  0  0  0  0  0  0  0  0  0  0
   -1.0844    1.0937    1.3150 O   0  0  0  0  0  0  0  0  0  0  0  0
    1.0494    0.5852    2.9440 C   0  0  0  0  0  0  0  0  0  0  0  0
    0.5427   -0.8130    3.2582 C   0  0  0  0  0  0  0  0  0  0  0  0
    1.0327   -1.7522    2.2391 N   0  0  0  0  0  0  0  0  0  0  0  0
    0.5427   -3.1044    2.5429 C   0  0  0  0  0  0  0  0  0  0  0  0
   -0.9773   -3.1044    2.5429 C   0  0  0  0  0  0  0  0  0  0  0  0
   -2.2382   -3.1044    2.5429 N   0  0  0  0  0  0  0  0  0  0  0  0
    0.5427   -1.3392    0.9161 C   0  0  0  0  0  0  0  0  0  0  0  0
   -0.9773   -1.3392    0.9161 C   0  0  0  0  0  0  0  0  0  0  0  0
   -1.7210   -2.4546    0.9156 C   0  0  0  0  0  0  0  0  0  0  0  0
   -3.0645   -2.0051    0.9001 C   0  0  0  0  0  0  0  0  0  0  0  0
   -3.0318   -0.6489    0.8948 C   0  0  0  0  0  0  0  0  0  0  0  0
   -4.2550    0.2529    0.8688 C   0  0  0  0  0  0  0  0  0  0  0  0
   -5.1996    0.1807    1.9105 C   0  0  0  0  0  0  0  0  0  0  0  0
   -6.3072    0.9821    1.9070 C   0  0  0  0  0  0  0  0  0  0  0  0
   -6.5045    1.9173    0.8665 C   0  0  0  0  0  0  0  0  0  0  0  0
   -7.6027    2.7388    0.8874 N   0  0  0  0  0  0  0  0  0  0  0  0
   -7.7228    3.5756   -0.1062 C   0  0  0  0  0  0  0  0  0  0  0  0
   -6.8776    3.7100   -1.1742 N   0  0  0  0  0  0  0  0  0  0  0  0
   -5.8309    2.9213   -1.2146 C   0  0  0  0  0  0  0  0  0  0  0  0
   -4.9104    3.0143   -2.3568 N   0  0  0  0  0  0  0  0  0  0  0  0
   -5.1696    3.9817   -3.4329 C   0  0  0  0  0  0  0  0  0  0  0  0
   -5.2204    5.3264   -3.1025 C   0  0  0  0  0  0  0  0  0  0  0  0
   -5.2960    6.2935   -4.0986 C   0  0  0  0  0  0  0  0  0  0  0  0
   -5.3433    5.9096   -5.4348 C   0  0  0  0  0  0  0  0  0  0  0  0
   -5.4110    6.8851   -6.4644 O   0  0  0  0  0  0  0  0  0  0  0  0
   -5.4587    6.4798   -7.8245 C   0  0  0  0  0  0  0  0  0  0  0  0
   -4.2106    5.6791   -8.1587 C   0  0  0  0  0  0  0  0  0  0  0  0
   -3.0458    6.3156   -8.4751 C   0  0  0  0  0  0  0  0  0  0  0  0
   -1.9315    5.5539   -8.7932 C   0  0  0  0  0  0  0  0  0  0  0  0
   -1.9991    4.1695   -8.8023 C   0  0  0  0  0  0  0  0  0  0  0  0
   -3.1666    3.5923   -8.4678 C   0  0  0  0  0  0  0  0  0  0  0  0
   -3.2376    2.2371   -8.4714 F   0  0  0  0  0  0  0  0  0  0  0  0
   -4.2771    4.2947   -8.1453 C   0  0  0  0  0  0  0  0  0  0  0  0
   -5.3232    4.5599   -5.7437 C   0  0  0  0  0  0  0  0  0  0  0  0
   -5.3998    4.0912   -7.4145 Cl  0  0  0  0  0  0  0  0  0  0  0  0
   -5.2071    3.5810   -4.7679 C   0  0  0  0  0  0  0  0  0  0  0  0
   -5.5605    1.9772   -0.1834 C   0  0  0  0  0  0  0  0  0  0  0  0
   -4.4309    1.1279   -0.1650 C   0  0  0  0  0  0  0  0  0  0  0  0
   -1.7296   -0.2110    0.9165 O   0  0  0  0  0  0  0  0  0  0  0  0
    0.6927    0.2378   -0.9028 H   0  0  0  0  0  0  0  0  0  0  0  0
    0.6927   -1.0470    0.2814 H   0  0  0  0  0  0  0  0  0  0  0  0
    2.1194   -0.0627    0.0602 H   0  0  0  0  0  0  0  0  0  0  0  0
    2.1194    0.5852    2.9440 H   0  0  0  0  0  0  0  0  0  0  0  0
    0.6927    1.2689    3.6858 H   0  0  0  0  0  0  0  0  0  0  0  0
    0.8994   -1.1136    4.2212 H   0  0  0  0  0  0  0  0  0  0  0  0
   -0.5273   -0.8130    3.2582 H   0  0  0  0  0  0  0  0  0  0  0  0
    0.8994   -3.7881    1.8011 H   0  0  0  0  0  0  0  0  0  0  0  0
    0.8994   -3.4050    3.5059 H   0  0  0  0  0  0  0  0  0  0  0  0
    0.8994   -0.3550    0.6949 H   0  0  0  0  0  0  0  0  0  0  0  0
    0.8994   -2.0229    0.1743 H   0  0  0  0  0  0  0  0  0  0  0  0
   -1.3744   -3.4668    0.9250 H   0  0  0  0  0  0  0  0  0  0  0  0
   -3.9403   -2.6198    0.8937 H   0  0  0  0  0  0  0  0  0  0  0  0
   -5.0488   -0.5095    2.7141 H   0  0  0  0  0  0  0  0  0  0  0  0
   -7.0269    0.9008    2.6947 H   0  0  0  0  0  0  0  0  0  0  0  0
   -8.5722    4.2260   -0.0837 H   0  0  0  0  0  0  0  0  0  0  0  0
   -4.0917    2.4076   -2.4028 H   0  0  0  0  0  0  0  0  0  0  0  0
   -5.2012    5.6225   -2.0745 H   0  0  0  0  0  0  0  0  0  0  0  0
   -5.3178    7.3310   -3.8378 H   0  0  0  0  0  0  0  0  0  0  0  0
   -6.3253    5.8733   -7.9857 H   0  0  0  0  0  0  0  0  0  0  0  0
   -5.5066    7.3445   -8.4529 H   0  0  0  0  0  0  0  0  0  0  0  0
   -2.9931    7.3843   -8.4778 H   0  0  0  0  0  0  0  0  0  0  0  0
   -1.0094    6.0402   -9.0342 H   0  0  0  0  0  0  0  0  0  0  0  0
   -1.1479    3.5780   -9.0676 H   0  0  0  0  0  0  0  0  0  0  0  0
   -5.1858    3.7930   -7.8858 H   0  0  0  0  0  0  0  0  0  0  0  0
   -5.1479    2.5460   -5.0325 H   0  0  0  0  0  0  0  0  0  0  0  0
   -3.7151    1.1704   -0.9592 H   0  0  0  0  0  0  0  0  0  0  0  0
  1  2  1  0  0  0  0
  1 44  1  0  0  0  0
  1 45  1  0  0  0  0
  1 46  1  0  0  0  0
  2  3  2  0  0  0  0
  2  4  2  0  0  0  0
  2  5  1  0  0  0  0
  5  6  1  0  0  0  0
  5 47  1  0  0  0  0
  5 48  1  0  0  0  0
  6  7  1  0  0  0  0
  6 49  1  0  0  0  0
  6 50  1  0  0  0  0
  7  8  1  0  0  0  0
  7 11  1  0  0  0  0
  8  9  1  0  0  0  0
  8 51  1  0  0  0  0
  8 52  1  0  0  0  0
  9 10  3  0  0  0  0
 11 12  1  0  0  0  0
 11 53  1  0  0  0  0
 11 54  1  0  0  0  0
 12 13  2  0  0  0  0
 12 43  1  0  0  0  0
 13 14  1  0  0  0  0
 13 55  1  0  0  0  0
 14 15  2  0  0  0  0
 14 56  1  0  0  0  0
 15 16  1  0  0  0  0
 15 43  1  0  0  0  0
 16 17  1  0  0  0  0
 16 42  2  0  0  0  0
 17 18  2  0  0  0  0
 17 57  1  0  0  0  0
 18 19  1  0  0  0  0
 18 58  1  0  0  0  0
 19 20  1  0  0  0  0
 19 41  2  0  0  0  0
 20 21  2  0  0  0  0
 21 22  1  0  0  0  0
 21 59  1  0  0  0  0
 22 23  2  0  0  0  0
 23 24  1  0  0  0  0
 23 41  1  0  0  0  0
 24 25  1  0  0  0  0
 24 60  1  0  0  0  0
 25 26  1  0  0  0  0
 25 40  2  0  0  0  0
 26 27  2  0  0  0  0
 26 61  1  0  0  0  0
 27 28  1  0  0  0  0
 27 62  1  0  0  0  0
 28 29  1  0  0  0  0
 28 38  2  0  0  0  0
 29 30  1  0  0  0  0
 30 31  1  0  0  0  0
 30 63  1  0  0  0  0
 30 64  1  0  0  0  0
 31 32  1  0  0  0  0
 31 37  2  0  0  0  0
 32 33  2  0  0  0  0
 32 65  1  0  0  0  0
 33 34  1  0  0  0  0
 33 66  1  0  0  0  0
 34 35  2  0  0  0  0
 34 67  1  0  0  0  0
 35 36  1  0  0  0  0
 35 37  1  0  0  0  0
 37 68  1  0  0  0  0
 38 39  1  0  0  0  0
 38 40  1  0  0  0  0
 40 69  1  0  0  0  0
 41 42  1  0  0  0  0
 42 70  1  0  0  0  0
M  END
