REMARK  Name = 
REMARK  4 active torsions:
REMARK  status: ('A' for Active; 'I' for Inactive)
REMARK    1  A    between atoms: C_1  and  O_2
REMARK    2  A    between atoms: O_2  and  C_3
REMARK    3  A    between atoms: C_10  and  C_11
REMARK    4  A    between atoms: C_12  and  C_13
REMARK                            x       y       z     vdW  Elec       q    Type
REMARK                         _______ _______ _______ _____ _____    ______ ____
ROOT
ATOM      1  C   UNL     1       0.924  -1.196  -2.187  0.00  0.00    +0.000 A 
ATOM      2  C   UNL     1      -0.067  -1.523  -3.102  0.00  0.00    +0.000 A 
ATOM      3  C   UNL     1       0.238  -1.582  -4.457  0.00  0.00    +0.000 A 
ATOM      4  C   UNL     1       1.540  -1.337  -4.825  0.00  0.00    +0.000 A 
ATOM      5  C   UNL     1       2.572  -1.063  -3.926  0.00  0.00    +0.000 A 
ATOM      6  C   UNL     1       2.237  -0.975  -2.581  0.00  0.00    +0.000 A 
ATOM      7  C   UNL     1       3.796  -0.876  -4.706  0.00  0.00    +0.000 C 
ATOM      8  C   UNL     1       5.084  -0.670  -4.380  0.00  0.00    +0.000 C 
ATOM      9  C   UNL     1       3.376  -1.024  -6.132  0.00  0.00    +0.000 C 
ATOM     10  O   UNL     1       4.072  -0.933  -7.144  0.00  0.00    +0.000 OA
ATOM     11  N   UNL     1       2.049  -1.302  -6.129  0.00  0.00    +0.000 N 
ATOM     12  H   UNL     1       1.492  -1.465  -6.968  0.00  0.00    +0.000 HD
ENDROOT
BRANCH   8  13
ATOM     13  C   UNL     1       5.495  -0.594  -2.918  0.00  0.00    +0.000 A 
ATOM     14  C   UNL     1       5.348  -1.565  -1.969  0.00  0.00    +0.000 A 
ATOM     15  N   UNL     1       5.843  -1.140  -0.744  0.00  0.00    +0.000 NA
ATOM     16  C   UNL     1       6.281   0.068  -0.990  0.00  0.00    +0.000 A 
ATOM     17  S   UNL     1       7.061   1.317  -0.083  0.00  0.00    +0.000 S 
ATOM     18  C   UNL     1       7.091   2.317  -1.511  0.00  0.00    +0.000 A 
ATOM     19  C   UNL     1       6.545   1.746  -2.586  0.00  0.00    +0.000 A 
ATOM     20  N   UNL     1       6.097   0.460  -2.281  0.00  0.00    +0.000 N 
BRANCH  14  21
ATOM     21  C   UNL     1       4.725  -2.928  -2.221  0.00  0.00    +0.000 A 
ATOM     22  C   UNL     1       3.602  -3.258  -1.488  0.00  0.00    +0.000 A 
ATOM     23  C   UNL     1       3.015  -4.515  -1.657  0.00  0.00    +0.000 A 
ATOM     24  C   UNL     1       3.592  -5.376  -2.582  0.00  0.00    +0.000 A 
ATOM     25  C   UNL     1       4.696  -4.958  -3.288  0.00  0.00    +0.000 A 
ATOM     26  N   UNL     1       5.274  -3.765  -3.115  0.00  0.00    +0.000 NA
ENDBRANCH  14  21
ENDBRANCH   8  13
BRANCH   1  28
ATOM     27  C   UNL     1       1.054   0.048  -0.069  0.00  0.00    +0.000 C 
ATOM     28  O   UNL     1       0.581  -1.063  -0.815  0.00  0.00    +0.000 OA
ENDBRANCH   1  28
TORSDOF 3
