
 OpenBabel03132512093D

 34 36  0  0  0  0  0  0  0  0999 V2000
    1.0183   -0.0700    0.0690 C   0  0  0  0  0  0  0  0  0  0  0  0
    0.5116   -1.3889    0.6295 C   0  0  0  0  0  0  0  0  0  0  0  0
    0.9850   -1.5516    1.9584 O   0  0  0  0  0  0  0  0  0  0  0  0
    2.3810   -1.5831    2.2159 C   0  0  0  0  0  0  0  0  0  0  0  0
    3.2020   -0.6813    1.6351 N   0  0  0  0  0  0  0  0  0  0  0  0
    4.5426   -0.6924    1.8582 C   0  0  0  0  0  0  0  0  0  0  0  0
    5.1179   -1.5977    2.6807 C   0  0  0  0  0  0  0  0  0  0  0  0
    4.3275   -2.5582    3.3147 C   0  0  0  0  0  0  0  0  0  0  0  0
    2.9237   -2.5564    3.0809 C   0  0  0  0  0  0  0  0  0  0  0  0
    2.4247   -3.5617    3.7985 N   0  0  0  0  0  0  0  0  0  0  0  0
    3.4185   -4.1591    4.4395 C   0  0  0  0  0  0  0  0  0  0  0  0
    3.2582   -5.3533    5.3660 C   0  0  0  0  0  0  0  0  0  0  0  0
    2.7796   -7.0180    4.9393 N   0  0  0  0  0  0  0  0  0  0  0  0
    3.0018   -7.7595    6.4906 O   0  0  0  0  0  0  0  0  0  0  0  0
    3.4265   -6.7286    7.2698 N   0  0  0  0  0  0  0  0  0  0  0  0
    3.5717   -5.4832    6.7122 C   0  0  0  0  0  0  0  0  0  0  0  0
    4.0386   -4.3370    7.5053 N   0  0  0  0  0  0  0  0  0  0  0  0
    4.5652   -3.5731    4.1613 N   0  0  0  0  0  0  0  0  0  0  0  0
    5.8809   -3.9637    4.6879 C   0  0  0  0  0  0  0  0  0  0  0  0
    5.8700   -3.8623    6.2045 C   0  0  0  0  0  0  0  0  0  0  0  0
    0.6616    0.7359    0.6758 H   0  0  0  0  0  0  0  0  0  0  0  0
    0.6616    0.0525   -0.9323 H   0  0  0  0  0  0  0  0  0  0  0  0
    2.0883   -0.0700    0.0690 H   0  0  0  0  0  0  0  0  0  0  0  0
   -0.5584   -1.3889    0.6295 H   0  0  0  0  0  0  0  0  0  0  0  0
    0.8683   -2.1949    0.0227 H   0  0  0  0  0  0  0  0  0  0  0  0
    5.1583    0.0341    1.3702 H   0  0  0  0  0  0  0  0  0  0  0  0
    6.1750   -1.5782    2.8453 H   0  0  0  0  0  0  0  0  0  0  0  0
    4.2627   -4.4578    8.4931 H   0  0  0  0  0  0  0  0  0  0  0  0
    4.1384   -3.4210    7.0680 H   0  0  0  0  0  0  0  0  0  0  0  0
    6.0957   -4.9714    4.3994 H   0  0  0  0  0  0  0  0  0  0  0  0
    6.6314   -3.3117    4.2923 H   0  0  0  0  0  0  0  0  0  0  0  0
    5.1195   -4.5143    6.6002 H   0  0  0  0  0  0  0  0  0  0  0  0
    6.8277   -4.1467    6.5879 H   0  0  0  0  0  0  0  0  0  0  0  0
    5.6552   -2.8546    6.4931 H   0  0  0  0  0  0  0  0  0  0  0  0
  1  2  1  0  0  0  0
  1 21  1  0  0  0  0
  1 22  1  0  0  0  0
  1 23  1  0  0  0  0
  2  3  1  0  0  0  0
  2 24  1  0  0  0  0
  2 25  1  0  0  0  0
  3  4  1  0  0  0  0
  4  5  1  0  0  0  0
  4  9  2  0  0  0  0
  5  6  2  0  0  0  0
  6  7  1  0  0  0  0
  6 26  1  0  0  0  0
  7  8  2  0  0  0  0
  7 27  1  0  0  0  0
  8  9  1  0  0  0  0
  8 18  1  0  0  0  0
  9 10  1  0  0  0  0
 10 11  2  0  0  0  0
 11 12  1  0  0  0  0
 11 18  1  0  0  0  0
 12 13  2  0  0  0  0
 12 16  1  0  0  0  0
 13 14  1  0  0  0  0
 14 15  1  0  0  0  0
 15 16  2  0  0  0  0
 16 17  1  0  0  0  0
 17 28  1  0  0  0  0
 17 29  1  0  0  0  0
 18 19  1  0  0  0  0
 19 20  1  0  0  0  0
 19 30  1  0  0  0  0
 19 31  1  0  0  0  0
 20 32  1  0  0  0  0
 20 33  1  0  0  0  0
 20 34  1  0  0  0  0
M  END
