REMARK  Name = 
REMARK  5 active torsions:
REMARK  status: ('A' for Active; 'I' for Inactive)
REMARK    1  A    between atoms: C_1  and  N_2
REMARK    2  A    between atoms: C_3  and  C_5
REMARK    3  A    between atoms: C_11  and  C_12
REMARK    4  A    between atoms: C_12  and  C_13
REMARK    5  A    between atoms: N_20  and  C_21
REMARK                            x       y       z     vdW  Elec       q    Type
REMARK                         _______ _______ _______ _____ _____    ______ ____
ROOT
ATOM      1  C   UNL     1      -0.616  -1.334   1.991  0.00  0.00    +0.000 A 
ATOM      2  C   UNL     1      -1.036   0.020   1.899  0.00  0.00    +0.000 A 
ATOM      3  C   UNL     1      -1.209   0.794   3.004  0.00  0.00    +0.000 A 
ATOM      4  C   UNL     1      -0.952   0.211   4.266  0.00  0.00    +0.000 A 
ATOM      5  N   UNL     1      -1.027   0.797   5.471  0.00  0.00    +0.000 NA
ATOM      6  N   UNL     1      -0.675  -0.193   6.338  0.00  0.00    +0.000 N 
ATOM      7  C   UNL     1      -0.385  -1.384   5.734  0.00  0.00    +0.000 A 
ATOM      8  C   UNL     1      -0.563  -1.153   4.365  0.00  0.00    +0.000 A 
ATOM      9  C   UNL     1      -0.396  -1.933   3.194  0.00  0.00    +0.000 A 
ATOM     10  H   UNL     1      -0.631  -0.057   7.348  0.00  0.00    +0.000 HD
ENDROOT
BRANCH   1  13
ATOM     11  C   UNL     1       1.086  -0.017  -0.048  0.00  0.00    +0.000 C 
ATOM     12  N   UNL     1       0.596  -1.381  -0.296  0.00  0.00    +0.000 N 
ATOM     13  C   UNL     1      -0.249  -2.051   0.702  0.00  0.00    +0.000 C 
ATOM     14  O   UNL     1      -0.673  -3.230   0.488  0.00  0.00    +0.000 OA
ATOM     15  H   UNL     1       0.842  -1.861  -1.161  0.00  0.00    +0.000 HD
ENDBRANCH   1  13
BRANCH   7  16
ATOM     16  C   UNL     1       0.040  -2.680   6.404  0.00  0.00    +0.000 C 
BRANCH  16  17
ATOM     17  C   UNL     1       1.333  -2.454   7.171  0.00  0.00    +0.000 A 
ATOM     18  C   UNL     1       1.359  -1.496   8.208  0.00  0.00    +0.000 A 
ATOM     19  C   UNL     1       2.495  -1.224   8.937  0.00  0.00    +0.000 A 
ATOM     20  C   UNL     1       3.635  -1.976   8.577  0.00  0.00    +0.000 A 
ATOM     21  C   UNL     1       3.623  -2.949   7.573  0.00  0.00    +0.000 A 
ATOM     22  C   UNL     1       4.939  -3.490   7.585  0.00  0.00    +0.000 A 
ATOM     23  N   UNL     1       5.692  -2.892   8.510  0.00  0.00    +0.000 NA
ATOM     24  N   UNL     1       4.889  -1.968   9.109  0.00  0.00    +0.000 N 
ATOM     25  C   UNL     1       5.404  -1.061  10.113  0.00  0.00    +0.000 C 
ATOM     26  C   UNL     1       2.438  -3.185   6.848  0.00  0.00    +0.000 A 
ENDBRANCH  16  17
ENDBRANCH   7  16
TORSDOF 3
