REMARK  Name = 
REMARK  13 active torsions:
REMARK  status: ('A' for Active; 'I' for Inactive)
REMARK    1  A    between atoms: C_1  and  O_2
REMARK    2  A    between atoms: O_2  and  C_3
REMARK    3  A    between atoms: N_10  and  C_11
REMARK    4  A    between atoms: C_21  and  C_22
REMARK    5  A    between atoms: C_22  and  N_23
REMARK    6  A    between atoms: N_23  and  C_24
REMARK    7  A    between atoms: N_23  and  C_29
REMARK    8  A    between atoms: C_24  and  C_25
REMARK    9  A    between atoms: C_25  and  N_26
REMARK   10  A    between atoms: N_26  and  C_27
REMARK   11  A    between atoms: N_26  and  C_28
REMARK   12  A    between atoms: C_29  and  C_30
REMARK   13  A    between atoms: C_29  and  C_31
REMARK                            x       y       z     vdW  Elec       q    Type
REMARK                         _______ _______ _______ _____ _____    ______ ____
ROOT
ATOM      1  C   UNL     1       0.952   2.435   0.221  0.00  0.00    +0.000 A 
ATOM      2  C   UNL     1      -0.079   3.250   0.598  0.00  0.00    +0.000 A 
ATOM      3  C   UNL     1       0.156   4.338   1.467  0.00  0.00    +0.000 A 
ATOM      4  N   UNL     1      -0.890   5.132   1.864  0.00  0.00    +0.000 NA
ATOM      5  C   UNL     1      -0.600   6.120   2.665  0.00  0.00    +0.000 A 
ATOM      6  N   UNL     1       0.639   6.457   3.139  0.00  0.00    +0.000 NA
ATOM      7  C   UNL     1       1.650   5.715   2.756  0.00  0.00    +0.000 A 
ATOM      8  N   UNL     1       3.002   6.057   3.221  0.00  0.00    +0.000 N 
ATOM      9  C   UNL     1       1.476   4.588   1.904  0.00  0.00    +0.000 A 
ATOM     10  C   UNL     1       2.528   3.740   1.489  0.00  0.00    +0.000 A 
ATOM     11  C   UNL     1       2.264   2.681   0.669  0.00  0.00    +0.000 A 
ATOM     12  H   UNL     1       3.799   5.490   2.932  0.00  0.00    +0.000 HD
ENDROOT
BRANCH   8  13
ATOM     13  C   UNL     1       3.205   7.216   4.102  0.00  0.00    +0.000 A 
ATOM     14  C   UNL     1       3.908   8.307   3.632  0.00  0.00    +0.000 A 
ATOM     15  C   UNL     1       4.007   9.473   4.379  0.00  0.00    +0.000 A 
ATOM     16  C   UNL     1       3.383   9.534   5.624  0.00  0.00    +0.000 A 
ATOM     17  C   UNL     1       2.679   8.441   6.093  0.00  0.00    +0.000 A 
ATOM     18 CL   UNL     1       1.864   8.520   7.617  0.00  0.00    +0.000 Cl
ATOM     19  C   UNL     1       2.602   7.298   5.330  0.00  0.00    +0.000 A 
ATOM     20  F   UNL     1       1.894   6.245   5.788  0.00  0.00    +0.000 F 
ENDBRANCH   8  13
BRANCH   1  22
ATOM     21  C   UNL     1       1.082  -0.005  -0.057  0.00  0.00    +0.000 C 
ATOM     22  O   UNL     1       0.609   1.259  -0.497  0.00  0.00    +0.000 OA
ENDBRANCH   1  22
BRANCH  11  23
ATOM     23  C   UNL     1       3.394   1.760   0.237  0.00  0.00    +0.000 C 
BRANCH  23  24
ATOM     24  N   UNL     1       4.405   2.537  -0.495  0.00  0.00    +0.000 NA
BRANCH  24  25
ATOM     25  C   UNL     1       3.789   3.147  -1.682  0.00  0.00    +0.000 C 
ATOM     26  C   UNL     1       3.237   2.056  -2.585  0.00  0.00    +0.000 C 
BRANCH  25  27
ATOM     27  C   UNL     1       2.659   4.067  -1.250  0.00  0.00    +0.000 C 
ATOM     28  N   UNL     1       2.707   5.498  -1.586  0.00  0.00    +0.000 N 
ATOM     29  O   UNL     1       1.673   3.600  -0.599  0.00  0.00    +0.000 OA
ATOM     30  H   UNL     1       1.949   6.115  -1.296  0.00  0.00    +0.000 HD
ATOM     31  H   UNL     1       3.499   5.873  -2.108  0.00  0.00    +0.000 HD
ENDBRANCH  25  27
ENDBRANCH  24  25
BRANCH  24  32
ATOM     32  C   UNL     1       5.498   1.647  -0.913  0.00  0.00    +0.000 C 
BRANCH  32  33
ATOM     33  C   UNL     1       4.946   0.555  -1.816  0.00  0.00    +0.000 C 
BRANCH  33  34
ATOM     34  N   UNL     1       4.330   1.166  -3.003  0.00  0.00    +0.000 NA
ATOM     35  C   UNL     1       3.796   0.110  -3.875  0.00  0.00    +0.000 C 
ATOM     36  C   UNL     1       3.237   2.056  -2.585  0.00  0.00    +0.000 C 
ENDBRANCH  33  34
ENDBRANCH  32  33
ENDBRANCH  24  32
ENDBRANCH  23  24
ENDBRANCH  11  23
TORSDOF 9
