REMARK  Name = 
REMARK  10 active torsions:
REMARK  status: ('A' for Active; 'I' for Inactive)
REMARK    1  A    between atoms: C_1  and  C_2
REMARK    2  A    between atoms: C_2  and  N_3
REMARK    3  A    between atoms: N_3  and  S_4
REMARK    4  A    between atoms: S_4  and  C_5
REMARK    5  A    between atoms: N_7  and  C_8
REMARK    6  A    between atoms: C_11  and  C_12
REMARK    7  A    between atoms: C_15  and  C_16
REMARK    8  A    between atoms: C_20  and  O_21
REMARK    9  A    between atoms: O_21  and  C_22
REMARK   10  A    between atoms: C_26  and  O_27
REMARK                            x       y       z     vdW  Elec       q    Type
REMARK                         _______ _______ _______ _____ _____    ______ ____
ROOT
ATOM      1  C   UNL     1      -6.141   9.736  -7.519  0.00  0.00    +0.000 A 
ATOM      2  N   UNL     1      -5.476  10.928  -7.727  0.00  0.00    +0.000 NA
ATOM      3  C   UNL     1      -6.178  12.036  -8.208  0.00  0.00    +0.000 A 
ATOM      4  N   UNL     1      -5.801  13.411  -8.533  0.00  0.00    +0.000 NA
ATOM      5  C   UNL     1      -6.867  14.031  -8.948  0.00  0.00    +0.000 A 
ATOM      6  N   UNL     1      -7.965  13.166  -8.931  0.00  0.00    +0.000 N 
ATOM      7  C   UNL     1      -7.555  11.929  -8.476  0.00  0.00    +0.000 A 
ATOM      8  C   UNL     1      -8.207  10.721  -8.260  0.00  0.00    +0.000 A 
ATOM      9  C   UNL     1      -7.505   9.634  -7.792  0.00  0.00    +0.000 A 
ATOM     10 CL   UNL     1      -8.344   8.086  -7.532  0.00  0.00    +0.000 Cl
ATOM     11  H   UNL     1      -8.916  13.409  -9.210  0.00  0.00    +0.000 HD
ENDROOT
BRANCH   1  15
ATOM     12  C   UNL     1      -4.116   6.361  -5.859  0.00  0.00    +0.000 A 
ATOM     13  C   UNL     1      -4.028   7.578  -5.204  0.00  0.00    +0.000 A 
ATOM     14  C   UNL     1      -4.905   8.566  -5.709  0.00  0.00    +0.000 A 
ATOM     15  C   UNL     1      -5.492   8.513  -6.891  0.00  0.00    +0.000 A 
ATOM     16  C   UNL     1      -5.486   7.298  -7.518  0.00  0.00    +0.000 A 
ATOM     17  C   UNL     1      -4.759   6.247  -7.016  0.00  0.00    +0.000 A 
BRANCH  12  21
ATOM     18  C   UNL     1      -1.870   3.292  -3.915  0.00  0.00    +0.000 A 
ATOM     19  C   UNL     1      -2.872   3.933  -3.206  0.00  0.00    +0.000 A 
ATOM     20  C   UNL     1      -3.692   4.769  -4.000  0.00  0.00    +0.000 A 
ATOM     21  C   UNL     1      -3.369   5.212  -5.202  0.00  0.00    +0.000 A 
ATOM     22  C   UNL     1      -2.326   4.582  -5.822  0.00  0.00    +0.000 A 
ATOM     23  C   UNL     1      -1.560   3.658  -5.153  0.00  0.00    +0.000 A 
BRANCH  18  27
ATOM     24  S   UNL     1       0.440   2.265  -3.163  0.00  0.00    +0.000 S 
ATOM     25  C   UNL     1       1.044   3.827  -2.475  0.00  0.00    +0.000 C 
ATOM     26  O   UNL     1       0.950   2.109  -4.597  0.00  0.00    +0.000 OA
ATOM     27  N   UNL     1      -1.135   2.265  -3.163  0.00  0.00    +0.000 NA
BRANCH  24  28
ATOM     28  N   UNL     1       1.027   0.926  -2.182  0.00  0.00    +0.000 NA
ATOM     29  H   UNL     1       2.047   0.926  -2.182  0.00  0.00    +0.000 HD
BRANCH  28  31
ATOM     30  C   UNL     1       1.044  -0.079   0.043  0.00  0.00    +0.000 C 
ATOM     31  C   UNL     1       0.537   1.077  -0.804  0.00  0.00    +0.000 C 
ENDBRANCH  28  31
ENDBRANCH  24  28
ENDBRANCH  18  27
ENDBRANCH  12  21
ENDBRANCH   1  15
BRANCH   5  32
ATOM     32  O   UNL     1      -6.909  15.389  -9.359  0.00  0.00    +0.000 OA
BRANCH  32  33
ATOM     33  C   UNL     1      -5.727  16.175  -9.334  0.00  0.00    +0.000 C 
ATOM     34  C   UNL     1      -4.721  15.724 -10.102  0.00  0.00    +0.000 C 
ATOM     35  O   UNL     1      -3.790  14.958  -9.289  0.00  0.00    +0.000 OA
ATOM     36  C   UNL     1      -3.975  15.442  -7.838  0.00  0.00    +0.000 C 
ATOM     37  C   UNL     1      -2.802  16.319  -7.451  0.00  0.00    +0.000 C 
ATOM     38  C   UNL     1      -3.071  17.570  -7.917  0.00  0.00    +0.000 C 
ATOM     39  O   UNL     1      -4.506  17.807  -7.902  0.00  0.00    +0.000 OA
ATOM     40  C   UNL     1      -5.178  16.422  -7.943  0.00  0.00    +0.000 C 
BRANCH  37  41
ATOM     41  O   UNL     1      -1.593  15.820  -8.005  0.00  0.00    +0.000 OA
ATOM     42  H   UNL     1      -1.669  15.792  -9.002  0.00  0.00    +0.000 HD
ENDBRANCH  37  41
ENDBRANCH  32  33
ENDBRANCH   5  32
TORSDOF 8
