REMARK  Name = 
REMARK  6 active torsions:
REMARK  status: ('A' for Active; 'I' for Inactive)
REMARK    1  A    between atoms: C_2  and  O_3
REMARK    2  A    between atoms: C_2  and  C_4
REMARK    3  A    between atoms: C_11  and  C_12
REMARK    4  A    between atoms: C_15  and  C_16
REMARK    5  A    between atoms: C_16  and  C_17
REMARK    6  A    between atoms: C_17  and  O_18
REMARK                            x       y       z     vdW  Elec       q    Type
REMARK                         _______ _______ _______ _____ _____    ______ ____
ROOT
ATOM      1  C   UNL     1       2.992   1.031   0.804  0.00  0.00    +0.000 A 
ATOM      2  C   UNL     1       3.985   1.782   0.220  0.00  0.00    +0.000 A 
ATOM      3  N   UNL     1       4.379   2.791   1.058  0.00  0.00    +0.000 N 
ATOM      4  C   UNL     1       3.677   2.684   2.236  0.00  0.00    +0.000 A 
ATOM      5  C   UNL     1       3.795   3.441   3.407  0.00  0.00    +0.000 A 
ATOM      6  C   UNL     1       2.996   3.051   4.463  0.00  0.00    +0.000 A 
ATOM      7 CL   UNL     1       3.107   3.926   5.969  0.00  0.00    +0.000 Cl
ATOM      8  C   UNL     1       2.110   1.961   4.397  0.00  0.00    +0.000 A 
ATOM      9  C   UNL     1       2.001   1.226   3.227  0.00  0.00    +0.000 A 
ATOM     10  C   UNL     1       2.785   1.587   2.116  0.00  0.00    +0.000 A 
ATOM     11  H   UNL     1       5.077   3.503   0.844  0.00  0.00    +0.000 HD
ENDROOT
BRANCH   8  12
ATOM     12  C   UNL     1       1.273   1.588   5.609  0.00  0.00    +0.000 A 
ATOM     13  C   UNL     1       1.368   0.316   6.149  0.00  0.00    +0.000 A 
ATOM     14  C   UNL     1       0.312  -0.013   7.031  0.00  0.00    +0.000 A 
ATOM     15  C   UNL     1      -0.493   0.868   7.597  0.00  0.00    +0.000 A 
ATOM     16  C   UNL     1      -0.491   2.126   7.061  0.00  0.00    +0.000 A 
ATOM     17  C   UNL     1       0.425   2.483   6.102  0.00  0.00    +0.000 A 
BRANCH  15  18
ATOM     18  C   UNL     1      -1.374   0.503   8.781  0.00  0.00    +0.000 C 
ATOM     19  C   UNL     1      -2.105   1.603   9.552  0.00  0.00    +0.000 C 
ATOM     20  C   UNL     1      -2.895   0.633   8.669  0.00  0.00    +0.000 C 
BRANCH  18  21
ATOM     21  C   UNL     1      -0.417  -0.618   9.154  0.00  0.00    +0.000 C 
BRANCH  21  22
ATOM     22  O   UNL     1      -0.327  -1.541   8.079  0.00  0.00    +0.000 OA
ATOM     23  H   UNL     1      -1.231  -1.923   7.891  0.00  0.00    +0.000 HD
ENDBRANCH  21  22
ENDBRANCH  18  21
ENDBRANCH  15  18
ENDBRANCH   8  12
BRANCH   1  25
ATOM     24  O   UNL     1       0.961  -0.061   0.069  0.00  0.00    +0.000 OA
ATOM     25  C   UNL     1       2.232  -0.061   0.069  0.00  0.00    +0.000 C 
BRANCH  25  26
ATOM     26  O   UNL     1       2.942  -1.081  -0.618  0.00  0.00    +0.000 OA
ATOM     27  H   UNL     1       3.942  -1.081  -0.618  0.00  0.00    +0.000 HD
ENDBRANCH  25  26
ENDBRANCH   1  25
TORSDOF 6
