
 OpenBabel03132514253D

 65 71  0  0  0  0  0  0  0  0999 V2000
    1.0640   -0.0725   -0.0255 O   0  0  0  0  0  0  0  0  0  0  0  0
    2.3349   -0.0725   -0.0255 C   0  0  0  0  0  0  0  0  0  0  0  0
    3.0449    1.1333   -0.2670 O   0  0  0  0  0  0  0  0  0  0  0  0
    3.0949   -1.3632    0.2330 C   0  0  0  0  0  0  0  0  0  0  0  0
    3.5212   -2.0216   -1.1166 C   0  0  0  0  0  0  0  0  0  0  0  0
    3.0532   -3.4790   -0.9301 C   0  0  0  0  0  0  0  0  0  0  0  0
    3.0587   -3.5890    0.6176 C   0  0  0  0  0  0  0  0  0  0  0  0
    3.0481   -4.9115    1.3667 C   0  0  0  0  0  0  0  0  0  0  0  0
    2.0008   -5.1874    2.2302 C   0  0  0  0  0  0  0  0  0  0  0  0
    2.2363   -6.2919    3.0826 C   0  0  0  0  0  0  0  0  0  0  0  0
    3.1615   -7.2118    2.8782 C   0  0  0  0  0  0  0  0  0  0  0  0
    3.1499   -8.5382    3.6204 C   0  0  0  0  0  0  0  0  0  0  0  0
    2.0559   -9.3765    3.4822 C   0  0  0  0  0  0  0  0  0  0  0  0
    2.0155  -10.4271    4.4290 C   0  0  0  0  0  0  0  0  0  0  0  0
    3.0495  -10.8308    5.1445 C   0  0  0  0  0  0  0  0  0  0  0  0
    3.0432  -12.1598    5.8821 C   0  0  0  0  0  0  0  0  0  0  0  0
    2.8877  -13.3344    5.1731 N   0  0  0  0  0  0  0  0  0  0  0  0
    2.8789  -14.5561    5.8529 C   0  0  0  0  0  0  0  0  0  0  0  0
    2.7389  -15.9486    5.4302 N   0  0  0  0  0  0  0  0  0  0  0  0
    2.8041  -16.6972    6.4921 C   0  0  0  0  0  0  0  0  0  0  0  0
    2.7088  -18.1140    6.4947 O   0  0  0  0  0  0  0  0  0  0  0  0
    2.5285  -18.8157    5.2734 C   0  0  0  0  0  0  0  0  0  0  0  0
    3.5454  -18.5849    4.4273 C   0  0  0  0  0  0  0  0  0  0  0  0
    3.2587  -17.4033    3.6285 O   0  0  0  0  0  0  0  0  0  0  0  0
    1.7271  -17.2369    3.6276 C   0  0  0  0  0  0  0  0  0  0  0  0
    1.1806  -17.6589    2.2797 C   0  0  0  0  0  0  0  0  0  0  0  0
    2.0524  -17.2607    1.2319 O   0  0  0  0  0  0  0  0  0  0  0  0
    1.0458  -19.0133    2.3116 C   0  0  0  0  0  0  0  0  0  0  0  0
    0.7358  -19.4494    3.6646 O   0  0  0  0  0  0  0  0  0  0  0  0
    1.2508  -18.3457    4.6078 C   0  0  0  0  0  0  0  0  0  0  0  0
    2.9815  -15.9052    7.6306 N   0  0  0  0  0  0  0  0  0  0  0  0
    3.0292  -14.5794    7.2506 C   0  0  0  0  0  0  0  0  0  0  0  0
    3.1856  -13.3869    7.9477 C   0  0  0  0  0  0  0  0  0  0  0  0
    3.1978  -12.1894    7.2682 C   0  0  0  0  0  0  0  0  0  0  0  0
    3.4126  -10.6672    8.1655 Cl  0  0  0  0  0  0  0  0  0  0  0  0
    4.1261   -9.9889    5.1860 C   0  0  0  0  0  0  0  0  0  0  0  0
    4.1814   -8.8725    4.3869 C   0  0  0  0  0  0  0  0  0  0  0  0
    4.1304   -6.9069    1.9629 C   0  0  0  0  0  0  0  0  0  0  0  0
    4.0373   -5.7784    1.1847 C   0  0  0  0  0  0  0  0  0  0  0  0
    3.0731   -2.4472    1.1963 N   0  0  0  0  0  0  0  0  0  0  0  0
    4.0449    1.1333   -0.2670 H   0  0  0  0  0  0  0  0  0  0  0  0
    3.5689   -0.7361    0.9589 H   0  0  0  0  0  0  0  0  0  0  0  0
    3.1044   -1.5435   -1.9783 H   0  0  0  0  0  0  0  0  0  0  0  0
    4.5808   -1.9692   -1.2562 H   0  0  0  0  0  0  0  0  0  0  0  0
    2.1126   -3.7046   -1.3874 H   0  0  0  0  0  0  0  0  0  0  0  0
    3.7353   -4.1720   -1.3768 H   0  0  0  0  0  0  0  0  0  0  0  0
    1.0957   -4.6170    2.2508 H   0  0  0  0  0  0  0  0  0  0  0  0
    1.6221   -6.3886    3.9534 H   0  0  0  0  0  0  0  0  0  0  0  0
    1.3092   -9.2417    2.7278 H   0  0  0  0  0  0  0  0  0  0  0  0
    1.0822  -10.9295    4.5756 H   0  0  0  0  0  0  0  0  0  0  0  0
    2.4845  -19.8610    5.4975 H   0  0  0  0  0  0  0  0  0  0  0  0
    4.4433  -18.4255    4.9870 H   0  0  0  0  0  0  0  0  0  0  0  0
    3.6699  -19.4291    3.7819 H   0  0  0  0  0  0  0  0  0  0  0  0
    1.4297  -16.2364    3.8633 H   0  0  0  0  0  0  0  0  0  0  0  0
    0.2299  -17.1988    2.1081 H   0  0  0  0  0  0  0  0  0  0  0  0
    2.9506  -17.6783    1.3688 H   0  0  0  0  0  0  0  0  0  0  0  0
    1.9632  -19.4657    1.9977 H   0  0  0  0  0  0  0  0  0  0  0  0
    0.2539  -19.3064    1.6544 H   0  0  0  0  0  0  0  0  0  0  0  0
    0.5158  -18.0632    5.3323 H   0  0  0  0  0  0  0  0  0  0  0  0
    3.0625  -16.2512    8.5867 H   0  0  0  0  0  0  0  0  0  0  0  0
    3.2964  -13.3995    9.0119 H   0  0  0  0  0  0  0  0  0  0  0  0
    4.9372  -10.2025    5.8504 H   0  0  0  0  0  0  0  0  0  0  0  0
    5.0636   -8.2671    4.3822 H   0  0  0  0  0  0  0  0  0  0  0  0
    4.9733   -7.5565    1.8511 H   0  0  0  0  0  0  0  0  0  0  0  0
    4.7686   -5.5964    0.4251 H   0  0  0  0  0  0  0  0  0  0  0  0
  1  2  2  0  0  0  0
  2  3  1  0  0  0  0
  2  4  1  0  0  0  0
  3 41  1  0  0  0  0
  4  5  1  0  0  0  0
  4 40  1  0  0  0  0
  4 42  1  0  0  0  0
  5  6  1  0  0  0  0
  5 43  1  0  0  0  0
  5 44  1  0  0  0  0
  6  7  1  0  0  0  0
  6 45  1  0  0  0  0
  6 46  1  0  0  0  0
  7  8  1  0  0  0  0
  7 40  2  0  0  0  0
  8  9  1  0  0  0  0
  8 39  2  0  0  0  0
  9 10  2  0  0  0  0
  9 47  1  0  0  0  0
 10 11  1  0  0  0  0
 10 48  1  0  0  0  0
 11 12  1  0  0  0  0
 11 38  2  0  0  0  0
 12 13  1  0  0  0  0
 12 37  2  0  0  0  0
 13 14  2  0  0  0  0
 13 49  1  0  0  0  0
 14 15  1  0  0  0  0
 14 50  1  0  0  0  0
 15 16  1  0  0  0  0
 15 36  2  0  0  0  0
 16 17  1  0  0  0  0
 16 34  2  0  0  0  0
 17 18  2  0  0  0  0
 18 19  1  0  0  0  0
 18 32  1  0  0  0  0
 19 20  2  0  0  0  0
 20 21  1  0  0  0  0
 20 31  1  0  0  0  0
 21 22  1  0  0  0  0
 22 23  1  0  0  0  0
 22 30  1  0  0  0  0
 22 51  1  0  0  0  0
 23 24  1  0  0  0  0
 23 52  1  0  0  0  0
 23 53  1  0  0  0  0
 24 25  1  0  0  0  0
 25 26  1  0  0  0  0
 25 30  1  0  0  0  0
 25 54  1  0  0  0  0
 26 27  1  0  0  0  0
 26 28  1  0  0  0  0
 26 55  1  0  0  0  0
 27 56  1  0  0  0  0
 28 29  1  0  0  0  0
 28 57  1  0  0  0  0
 28 58  1  0  0  0  0
 29 30  1  0  0  0  0
 30 59  1  0  0  0  0
 31 32  1  0  0  0  0
 31 60  1  0  0  0  0
 32 33  2  0  0  0  0
 33 34  1  0  0  0  0
 33 61  1  0  0  0  0
 34 35  1  0  0  0  0
 36 37  1  0  0  0  0
 36 62  1  0  0  0  0
 37 63  1  0  0  0  0
 38 39  1  0  0  0  0
 38 64  1  0  0  0  0
 39 65  1  0  0  0  0
M  END
