
 OpenBabel03132512093D

 56 59  0  0  0  0  0  0  0  0999 V2000
    1.0583   -0.0112    0.0805 C   0  0  0  0  0  0  0  0  0  0  0  0
    0.5850    1.2492   -0.3708 O   0  0  0  0  0  0  0  0  0  0  0  0
    0.9280    2.4314    0.3372 C   0  0  0  0  0  0  0  0  0  0  0  0
   -0.1034    3.2499    0.7048 C   0  0  0  0  0  0  0  0  0  0  0  0
    0.1313    4.3468    1.5639 C   0  0  0  0  0  0  0  0  0  0  0  0
   -0.9147    5.1445    1.9524 N   0  0  0  0  0  0  0  0  0  0  0  0
   -0.6249    6.1403    2.7437 C   0  0  0  0  0  0  0  0  0  0  0  0
    0.6139    6.4822    3.2146 N   0  0  0  0  0  0  0  0  0  0  0  0
    1.6254    5.7368    2.8399 C   0  0  0  0  0  0  0  0  0  0  0  0
    2.9773    6.0831    3.3017 N   0  0  0  0  0  0  0  0  0  0  0  0
    3.1803    7.2509    4.1712 C   0  0  0  0  0  0  0  0  0  0  0  0
    3.8835    8.3364    3.6908 C   0  0  0  0  0  0  0  0  0  0  0  0
    3.9832    9.5102    4.4266 C   0  0  0  0  0  0  0  0  0  0  0  0
    3.3583    9.5834    5.6704 C   0  0  0  0  0  0  0  0  0  0  0  0
    2.6534    8.4954    6.1497 C   0  0  0  0  0  0  0  0  0  0  0  0
    1.8387    8.5900    7.6733 Cl  0  0  0  0  0  0  0  0  0  0  0  0
    2.5764    7.3444    5.3987 C   0  0  0  0  0  0  0  0  0  0  0  0
    1.8680    6.2962    5.8659 F   0  0  0  0  0  0  0  0  0  0  0  0
    1.4517    4.6013    1.9983 C   0  0  0  0  0  0  0  0  0  0  0  0
    2.5038    3.7491    1.5927 C   0  0  0  0  0  0  0  0  0  0  0  0
    2.2401    2.6814    0.7830 C   0  0  0  0  0  0  0  0  0  0  0  0
    3.3701    1.7569    0.3604 C   0  0  0  0  0  0  0  0  0  0  0  0
    3.4749    1.7661   -1.0946 N   0  0  0  0  0  0  0  0  0  0  0  0
    4.5632    0.9235   -1.5462 C   0  0  0  0  0  0  0  0  0  0  0  0
    4.6203    0.8529   -3.0645 C   0  0  0  0  0  0  0  0  0  0  0  0
    4.6764    2.1794   -3.6657 N   0  0  0  0  0  0  0  0  0  0  0  0
    6.0286    2.7209   -3.4677 C   0  0  0  0  0  0  0  0  0  0  0  0
    3.7295    3.1101   -3.1106 C   0  0  0  0  0  0  0  0  0  0  0  0
    3.7402    3.1027   -1.5992 C   0  0  0  0  0  0  0  0  0  0  0  0
    2.6565    4.0421   -1.0956 C   0  0  0  0  0  0  0  0  0  0  0  0
    3.0149    5.1954   -0.2574 N   0  0  0  0  0  0  0  0  0  0  0  0
    1.4407    3.8305   -1.3991 O   0  0  0  0  0  0  0  0  0  0  0  0
    0.7016   -0.7806   -0.5721 H   0  0  0  0  0  0  0  0  0  0  0  0
    0.7016   -0.1916    1.0730 H   0  0  0  0  0  0  0  0  0  0  0  0
    2.1283   -0.0112    0.0805 H   0  0  0  0  0  0  0  0  0  0  0  0
   -1.0914    3.0593    0.3410 H   0  0  0  0  0  0  0  0  0  0  0  0
   -1.4423    6.7551    3.0579 H   0  0  0  0  0  0  0  0  0  0  0  0
    3.7745    5.5131    3.0190 H   0  0  0  0  0  0  0  0  0  0  0  0
    4.3603    8.2729    2.7350 H   0  0  0  0  0  0  0  0  0  0  0  0
    4.5314   10.3458    4.0443 H   0  0  0  0  0  0  0  0  0  0  0  0
    3.4241   10.4790    6.2523 H   0  0  0  0  0  0  0  0  0  0  0  0
    3.5047    3.9400    1.9192 H   0  0  0  0  0  0  0  0  0  0  0  0
    3.1694    0.7627    0.7012 H   0  0  0  0  0  0  0  0  0  0  0  0
    4.2902    2.0967    0.7881 H   0  0  0  0  0  0  0  0  0  0  0  0
    5.4819    1.3446   -1.1949 H   0  0  0  0  0  0  0  0  0  0  0  0
    4.4232   -0.0634   -1.1573 H   0  0  0  0  0  0  0  0  0  0  0  0
    3.7305    0.3686   -3.4090 H   0  0  0  0  0  0  0  0  0  0  0  0
    5.4926    0.3045   -3.3533 H   0  0  0  0  0  0  0  0  0  0  0  0
    6.2376    2.7843   -2.4202 H   0  0  0  0  0  0  0  0  0  0  0  0
    6.7430    2.0763   -3.9356 H   0  0  0  0  0  0  0  0  0  0  0  0
    6.0894    3.6964   -3.9032 H   0  0  0  0  0  0  0  0  0  0  0  0
    2.7525    2.8164   -3.4335 H   0  0  0  0  0  0  0  0  0  0  0  0
    3.9731    4.0944   -3.4521 H   0  0  0  0  0  0  0  0  0  0  0  0
    4.6993    3.4261   -1.2524 H   0  0  0  0  0  0  0  0  0  0  0  0
    2.2877    5.8257    0.0806 H   0  0  0  0  0  0  0  0  0  0  0  0
    3.9907    5.3652   -0.0138 H   0  0  0  0  0  0  0  0  0  0  0  0
  1  2  1  0  0  0  0
  1 33  1  0  0  0  0
  1 34  1  0  0  0  0
  1 35  1  0  0  0  0
  2  3  1  0  0  0  0
  3  4  1  0  0  0  0
  3 21  2  0  0  0  0
  4  5  2  0  0  0  0
  4 36  1  0  0  0  0
  5  6  1  0  0  0  0
  5 19  1  0  0  0  0
  6  7  2  0  0  0  0
  7  8  1  0  0  0  0
  7 37  1  0  0  0  0
  8  9  2  0  0  0  0
  9 10  1  0  0  0  0
  9 19  1  0  0  0  0
 10 11  1  0  0  0  0
 10 38  1  0  0  0  0
 11 12  1  0  0  0  0
 11 17  2  0  0  0  0
 12 13  2  0  0  0  0
 12 39  1  0  0  0  0
 13 14  1  0  0  0  0
 13 40  1  0  0  0  0
 14 15  2  0  0  0  0
 14 41  1  0  0  0  0
 15 16  1  0  0  0  0
 15 17  1  0  0  0  0
 17 18  1  0  0  0  0
 19 20  2  0  0  0  0
 20 21  1  0  0  0  0
 20 42  1  0  0  0  0
 21 22  1  0  0  0  0
 22 23  1  0  0  0  0
 22 43  1  0  0  0  0
 22 44  1  0  0  0  0
 23 24  1  0  0  0  0
 23 29  1  0  0  0  0
 24 25  1  0  0  0  0
 24 45  1  0  0  0  0
 24 46  1  0  0  0  0
 25 26  1  0  0  0  0
 25 47  1  0  0  0  0
 25 48  1  0  0  0  0
 26 27  1  0  0  0  0
 26 28  1  0  0  0  0
 27 49  1  0  0  0  0
 27 50  1  0  0  0  0
 27 51  1  0  0  0  0
 28 29  1  0  0  0  0
 28 52  1  0  0  0  0
 28 53  1  0  0  0  0
 29 30  1  0  0  0  0
 29 54  1  0  0  0  0
 30 31  1  0  0  0  0
 30 32  2  0  0  0  0
 31 55  1  0  0  0  0
 31 56  1  0  0  0  0
M  END
