REMARK  Name = 
REMARK  10 active torsions:
REMARK  status: ('A' for Active; 'I' for Inactive)
REMARK    1  A    between atoms: C_1  and  O_2
REMARK    2  A    between atoms: O_2  and  C_3
REMARK    3  A    between atoms: C_5  and  C_6
REMARK    4  A    between atoms: C_15  and  C_16
REMARK    5  A    between atoms: C_16  and  O_18
REMARK    6  A    between atoms: C_21  and  C_22
REMARK    7  A    between atoms: C_22  and  C_23
REMARK    8  A    between atoms: C_22  and  C_24
REMARK    9  A    between atoms: C_22  and  C_25
REMARK   10  A    between atoms: C_25  and  O_26
REMARK                            x       y       z     vdW  Elec       q    Type
REMARK                         _______ _______ _______ _____ _____    ______ ____
ROOT
ATOM      1  C   UNL     1       0.888   1.992  -1.476  0.00  0.00    +0.000 A 
ATOM      2  C   UNL     1      -0.075   2.902  -1.879  0.00  0.00    +0.000 A 
ATOM      3  C   UNL     1       0.454   4.132  -2.337  0.00  0.00    +0.000 A 
ATOM      4  C   UNL     1       1.679   4.558  -2.090  0.00  0.00    +0.000 A 
ATOM      5  C   UNL     1       2.566   3.626  -1.630  0.00  0.00    +0.000 A 
ATOM      6  C   UNL     1       2.149   2.363  -1.285  0.00  0.00    +0.000 A 
ENDROOT
BRANCH   3   7
ATOM      7  C   UNL     1      -0.452   5.024  -3.170  0.00  0.00    +0.000 A 
ATOM      8  C   UNL     1      -1.579   5.512  -2.530  0.00  0.00    +0.000 A 
ATOM      9  C   UNL     1      -2.494   6.160  -3.393  0.00  0.00    +0.000 A 
ATOM     10  C   UNL     1      -2.198   6.601  -4.602  0.00  0.00    +0.000 A 
ATOM     11  C   UNL     1      -1.037   6.135  -5.153  0.00  0.00    +0.000 A 
ATOM     12  C   UNL     1      -0.154   5.386  -4.412  0.00  0.00    +0.000 A 
ATOM     13 CL   UNL     1       1.402   4.898  -5.125  0.00  0.00    +0.000 Cl
ATOM     14  N   UNL     1      -3.071   7.543  -5.317  0.00  0.00    +0.000 NA
ATOM     15  C   UNL     1      -2.742   7.961  -6.521  0.00  0.00    +0.000 C 
ATOM     16  C   UNL     1      -3.916   6.361  -2.895  0.00  0.00    +0.000 C 
BRANCH  16  17
ATOM     17  C   UNL     1      -3.895   7.205  -1.631  0.00  0.00    +0.000 C 
ATOM     18  O   UNL     1      -4.508   8.318  -1.600  0.00  0.00    +0.000 OA
BRANCH  17  19
ATOM     19  O   UNL     1      -3.190   6.750  -0.485  0.00  0.00    +0.000 OA
ATOM     20  H   UNL     1      -3.177   7.306   0.347  0.00  0.00    +0.000 HD
ENDBRANCH  17  19
ENDBRANCH  16  17
ENDBRANCH   3   7
BRANCH   6  21
ATOM     21  C   UNL     1       3.139   1.381  -0.680  0.00  0.00    +0.000 C 
ATOM     22  C   UNL     1       4.278   1.142  -1.658  0.00  0.00    +0.000 C 
ATOM     23  C   UNL     1       3.695   1.955   0.614  0.00  0.00    +0.000 C 
BRANCH  21  24
ATOM     24  C   UNL     1       2.436   0.066  -0.390  0.00  0.00    +0.000 C 
BRANCH  24  25
ATOM     25  O   UNL     1       1.372   0.289   0.524  0.00  0.00    +0.000 OA
ATOM     26  H   UNL     1       1.738   0.666   1.375  0.00  0.00    +0.000 HD
ENDBRANCH  24  25
ENDBRANCH  21  24
ENDBRANCH   6  21
BRANCH   1  28
ATOM     27  C   UNL     1       1.019  -0.036  -0.091  0.00  0.00    +0.000 C 
ATOM     28  O   UNL     1       0.545   0.633  -1.251  0.00  0.00    +0.000 OA
ENDBRANCH   1  28
TORSDOF 7
