REMARK  Name = 
REMARK  12 active torsions:
REMARK  status: ('A' for Active; 'I' for Inactive)
REMARK    1  A    between atoms: C_1  and  C_2
REMARK    2  A    between atoms: C_2  and  N_3
REMARK    3  A    between atoms: N_3  and  C_4
REMARK    4  A    between atoms: N_3  and  C_6
REMARK    5  A    between atoms: C_4  and  C_5
REMARK    6  A    between atoms: C_6  and  C_7
REMARK    7  A    between atoms: C_7  and  N_8
REMARK    8  A    between atoms: C_9  and  C_11
REMARK    9  A    between atoms: C_12  and  C_13
REMARK   10  A    between atoms: C_15  and  C_16
REMARK   11  A    between atoms: C_24  and  C_25
REMARK   12  A    between atoms: C_33  and  C_34
REMARK                            x       y       z     vdW  Elec       q    Type
REMARK                         _______ _______ _______ _____ _____    ______ ____
ROOT
ATOM      1  C   UNL     1       4.867  -1.056  -2.347  0.00  0.00    +0.000 A 
ATOM      2  C   UNL     1       5.521  -2.263  -2.328  0.00  0.00    +0.000 A 
ATOM      3  C   UNL     1       5.016  -3.654  -2.504  0.00  0.00    +0.000 C 
ATOM      4  N   UNL     1       6.843  -2.007  -2.117  0.00  0.00    +0.000 N 
ATOM      5  C   UNL     1       7.061  -0.654  -2.022  0.00  0.00    +0.000 A 
ATOM      6  C   UNL     1       5.848  -0.027  -2.163  0.00  0.00    +0.000 A 
ATOM      7  C   UNL     1       5.576   1.454  -2.094  0.00  0.00    +0.000 C 
ATOM      8  H   UNL     1       7.569  -2.720  -2.042  0.00  0.00    +0.000 HD
ENDROOT
BRANCH   5   9
ATOM      9  C   UNL     1       8.402   0.026  -1.799  0.00  0.00    +0.000 C 
ATOM     10  C   UNL     1       9.395  -0.149  -2.690  0.00  0.00    +0.000 C 
ATOM     11  C   UNL     1       9.183  -0.949  -3.934  0.00  0.00    +0.000 C 
ATOM     12  O   UNL     1       8.174  -1.565  -4.279  0.00  0.00    +0.000 OA
ATOM     13  N   UNL     1      10.327  -0.870  -4.657  0.00  0.00    +0.000 N 
ATOM     14  C   UNL     1      11.292  -0.100  -3.998  0.00  0.00    +0.000 A 
ATOM     15  C   UNL     1      12.564   0.179  -4.441  0.00  0.00    +0.000 A 
ATOM     16  C   UNL     1      13.384   0.928  -3.605  0.00  0.00    +0.000 A 
ATOM     17  C   UNL     1      12.914   1.337  -2.365  0.00  0.00    +0.000 A 
ATOM     18  C   UNL     1      11.618   1.062  -1.949  0.00  0.00    +0.000 A 
ATOM     19  C   UNL     1      10.770   0.344  -2.783  0.00  0.00    +0.000 A 
ATOM     20  H   UNL     1      10.466  -1.314  -5.564  0.00  0.00    +0.000 HD
BRANCH  17  21
ATOM     21  C   UNL     1      13.842   2.104  -1.438  0.00  0.00    +0.000 A 
ATOM     22  C   UNL     1      14.123   1.545  -0.189  0.00  0.00    +0.000 A 
ATOM     23  C   UNL     1      15.058   2.191   0.611  0.00  0.00    +0.000 A 
ATOM     24  C   UNL     1      15.664   3.334   0.143  0.00  0.00    +0.000 A 
ATOM     25  N   UNL     1      15.383   3.886  -1.042  0.00  0.00    +0.000 NA
ATOM     26  C   UNL     1      14.479   3.269  -1.819  0.00  0.00    +0.000 A 
ENDBRANCH  17  21
ENDBRANCH   5   9
BRANCH   1  28
ATOM     27  N   UNL     1       2.417  -1.687  -1.792  0.00  0.00    +0.000 N 
ATOM     28  C   UNL     1       3.372  -0.848  -2.530  0.00  0.00    +0.000 C 
ATOM     29  O   UNL     1       2.949   0.051  -3.322  0.00  0.00    +0.000 OA
ATOM     30  H   UNL     1       1.414  -1.547  -1.915  0.00  0.00    +0.000 HD
BRANCH  27  31
ATOM     31  C   UNL     1       2.907  -2.727  -0.876  0.00  0.00    +0.000 C 
BRANCH  31  32
ATOM     32  C   UNL     1       2.400  -2.445   0.529  0.00  0.00    +0.000 C 
BRANCH  32  33
ATOM     33  N   UNL     1       0.930  -2.445   0.529  0.00  0.00    +0.000 NA
BRANCH  33  35
ATOM     34  C   UNL     1       0.947  -0.047   0.071  0.00  0.00    +0.000 C 
ATOM     35  C   UNL     1       0.440  -1.405  -0.387  0.00  0.00    +0.000 C 
ENDBRANCH  33  35
BRANCH  33  36
ATOM     36  C   UNL     1       0.440  -3.758   0.086  0.00  0.00    +0.000 C 
ATOM     37  C   UNL     1       0.947  -4.040  -1.319  0.00  0.00    +0.000 C 
ENDBRANCH  33  36
ENDBRANCH  32  33
ENDBRANCH  31  32
ENDBRANCH  27  31
ENDBRANCH   1  28
TORSDOF 8
