
 OpenBabel03132514253D

 55 59  0  0  0  0  0  0  0  0999 V2000
    0.9266    0.0387    0.0558 C   0  0  0  0  0  0  0  0  0  0  0  0
    0.4199   -1.3842    0.2263 C   0  0  0  0  0  0  0  0  0  0  0  0
    0.9266   -1.9480    1.5438 C   0  0  0  0  0  0  0  0  0  0  0  0
    0.4366   -1.1171    2.6531 N   0  0  0  0  0  0  0  0  0  0  0  0
   -0.4086   -1.7113    3.6988 C   0  0  0  0  0  0  0  0  0  0  0  0
   -0.8322   -0.9930    4.6579 O   0  0  0  0  0  0  0  0  0  0  0  0
   -0.7758   -3.1848    3.6331 C   0  0  0  0  0  0  0  0  0  0  0  0
   -2.0158   -3.7282    3.8442 C   0  0  0  0  0  0  0  0  0  0  0  0
   -1.9426   -5.0813    3.7202 N   0  0  0  0  0  0  0  0  0  0  0  0
   -0.6602   -5.4770    3.4038 C   0  0  0  0  0  0  0  0  0  0  0  0
   -0.0895   -6.6582    3.1740 N   0  0  0  0  0  0  0  0  0  0  0  0
    1.1983   -6.7406    2.8726 C   0  0  0  0  0  0  0  0  0  0  0  0
    1.9937   -5.5833    2.8084 C   0  0  0  0  0  0  0  0  0  0  0  0
    3.4765   -5.6777    2.4877 C   0  0  0  0  0  0  0  0  0  0  0  0
    4.4607   -5.2745    3.2652 N   0  0  0  0  0  0  0  0  0  0  0  0
    5.6311   -5.4994    2.6864 N   0  0  0  0  0  0  0  0  0  0  0  0
    6.9464   -5.1776    3.2586 C   0  0  0  0  0  0  0  0  0  0  0  0
    5.4178   -6.0657    1.4996 C   0  0  0  0  0  0  0  0  0  0  0  0
    6.2424   -6.5254    0.4514 C   0  0  0  0  0  0  0  0  0  0  0  0
    5.6755   -7.0660   -0.6490 C   0  0  0  0  0  0  0  0  0  0  0  0
    6.7202   -7.6532   -1.9651 Cl  0  0  0  0  0  0  0  0  0  0  0  0
    4.3265   -7.1723   -0.7753 C   0  0  0  0  0  0  0  0  0  0  0  0
    3.4873   -6.7538    0.1982 C   0  0  0  0  0  0  0  0  0  0  0  0
    4.0063   -6.1857    1.3633 C   0  0  0  0  0  0  0  0  0  0  0  0
    1.4208   -4.4020    3.0346 N   0  0  0  0  0  0  0  0  0  0  0  0
    0.1268   -4.3123    3.3319 C   0  0  0  0  0  0  0  0  0  0  0  0
    0.4199   -3.3709    1.7143 C   0  0  0  0  0  0  0  0  0  0  0  0
    1.2458   -4.3300    1.8293 O   0  0  0  0  0  0  0  0  0  0  0  0
   -1.0253   -3.6376    1.7463 N   0  0  0  0  0  0  0  0  0  0  0  0
   -1.9952   -4.4790    2.5938 C   0  0  0  0  0  0  0  0  0  0  0  0
   -2.9225   -4.5017    1.3680 C   0  0  0  0  0  0  0  0  0  0  0  0
   -4.4313   -4.6255    1.5048 C   0  0  0  0  0  0  0  0  0  0  0  0
   -5.6829   -4.7283    1.6182 N   0  0  0  0  0  0  0  0  0  0  0  0
   -2.2516   -3.1893    0.9300 C   0  0  0  0  0  0  0  0  0  0  0  0
    0.5699    0.6435    0.8632 H   0  0  0  0  0  0  0  0  0  0  0  0
    0.5699    0.4356   -0.8717 H   0  0  0  0  0  0  0  0  0  0  0  0
    1.9966    0.0387    0.0558 H   0  0  0  0  0  0  0  0  0  0  0  0
   -0.6501   -1.3842    0.2263 H   0  0  0  0  0  0  0  0  0  0  0  0
    0.7766   -1.9890   -0.5811 H   0  0  0  0  0  0  0  0  0  0  0  0
    1.9966   -1.9480    1.5438 H   0  0  0  0  0  0  0  0  0  0  0  0
    0.6830   -0.1283    2.6972 H   0  0  0  0  0  0  0  0  0  0  0  0
   -2.9031   -3.1750    4.0711 H   0  0  0  0  0  0  0  0  0  0  0  0
   -2.7303   -5.7172    3.8446 H   0  0  0  0  0  0  0  0  0  0  0  0
    1.6368   -7.6967    2.6763 H   0  0  0  0  0  0  0  0  0  0  0  0
    7.5218   -6.0743    3.3565 H   0  0  0  0  0  0  0  0  0  0  0  0
    7.4582   -4.4940    2.6139 H   0  0  0  0  0  0  0  0  0  0  0  0
    6.8165   -4.7302    4.2218 H   0  0  0  0  0  0  0  0  0  0  0  0
    7.3067   -6.4466    0.5273 H   0  0  0  0  0  0  0  0  0  0  0  0
    3.9183   -7.5981   -1.6680 H   0  0  0  0  0  0  0  0  0  0  0  0
    2.4293   -6.8573    0.0764 H   0  0  0  0  0  0  0  0  0  0  0  0
   -1.6846   -5.3771    3.0856 H   0  0  0  0  0  0  0  0  0  0  0  0
   -2.3954   -3.9753    3.4488 H   0  0  0  0  0  0  0  0  0  0  0  0
   -2.7669   -5.3267    0.7046 H   0  0  0  0  0  0  0  0  0  0  0  0
   -2.7161   -2.2373    1.0813 H   0  0  0  0  0  0  0  0  0  0  0  0
   -2.0817   -3.1026   -0.1228 H   0  0  0  0  0  0  0  0  0  0  0  0
  1  2  1  0  0  0  0
  1 35  1  0  0  0  0
  1 36  1  0  0  0  0
  1 37  1  0  0  0  0
  2  3  1  0  0  0  0
  2 38  1  0  0  0  0
  2 39  1  0  0  0  0
  3  4  1  0  0  0  0
  3 27  1  0  0  0  0
  3 40  1  0  0  0  0
  4  5  1  0  0  0  0
  4 41  1  0  0  0  0
  5  6  2  0  0  0  0
  5  7  1  0  0  0  0
  7  8  2  0  0  0  0
  7 26  1  0  0  0  0
  8  9  1  0  0  0  0
  8 42  1  0  0  0  0
  9 10  1  0  0  0  0
  9 43  1  0  0  0  0
 10 11  1  0  0  0  0
 10 26  2  0  0  0  0
 11 12  2  0  0  0  0
 12 13  1  0  0  0  0
 12 44  1  0  0  0  0
 13 14  1  0  0  0  0
 13 25  2  0  0  0  0
 14 15  2  0  0  0  0
 14 24  1  0  0  0  0
 15 16  1  0  0  0  0
 16 17  1  0  0  0  0
 16 18  1  0  0  0  0
 17 45  1  0  0  0  0
 17 46  1  0  0  0  0
 17 47  1  0  0  0  0
 18 19  1  0  0  0  0
 18 24  2  0  0  0  0
 19 20  2  0  0  0  0
 19 48  1  0  0  0  0
 20 21  1  0  0  0  0
 20 22  1  0  0  0  0
 22 23  2  0  0  0  0
 22 49  1  0  0  0  0
 23 24  1  0  0  0  0
 23 50  1  0  0  0  0
 25 26  1  0  0  0  0
 27 28  2  0  0  0  0
 27 29  1  0  0  0  0
 29 30  1  0  0  0  0
 29 34  1  0  0  0  0
 30 31  1  0  0  0  0
 30 51  1  0  0  0  0
 30 52  1  0  0  0  0
 31 32  1  0  0  0  0
 31 34  1  0  0  0  0
 31 53  1  0  0  0  0
 32 33  3  0  0  0  0
 34 54  1  0  0  0  0
 34 55  1  0  0  0  0
M  END
