REMARK  Name = 
REMARK  5 active torsions:
REMARK  status: ('A' for Active; 'I' for Inactive)
REMARK    1  A    between atoms: C_2  and  O_3
REMARK    2  A    between atoms: C_2  and  C_4
REMARK    3  A    between atoms: C_12  and  O_13
REMARK    4  A    between atoms: O_13  and  C_14
REMARK    5  A    between atoms: C_14  and  C_15
REMARK                            x       y       z     vdW  Elec       q    Type
REMARK                         _______ _______ _______ _____ _____    ______ ____
ROOT
ATOM      1  C   UNL     1       3.061   0.601   1.271  0.00  0.00    +0.000 C 
ATOM      2  C   UNL     1       3.292   2.115   1.006  0.00  0.00    +0.000 C 
ATOM      3  C   UNL     1       3.964   2.807   2.207  0.00  0.00    +0.000 C 
ATOM      4  C   UNL     1       4.871   1.893   2.944  0.00  0.00    +0.000 A 
ATOM      5  N   UNL     1       5.611   2.280   4.046  0.00  0.00    +0.000 N 
ATOM      6  C   UNL     1       6.278   1.182   4.545  0.00  0.00    +0.000 A 
ATOM      7  C   UNL     1       7.175   1.087   5.609  0.00  0.00    +0.000 A 
ATOM      8  C   UNL     1       7.719  -0.161   5.865  0.00  0.00    +0.000 A 
ATOM      9  C   UNL     1       7.384  -1.280   5.095  0.00  0.00    +0.000 A 
ATOM     10  C   UNL     1       6.508  -1.171   4.027  0.00  0.00    +0.000 A 
ATOM     11  C   UNL     1       5.947   0.073   3.729  0.00  0.00    +0.000 A 
ATOM     12  C   UNL     1       5.055   0.562   2.711  0.00  0.00    +0.000 A 
ATOM     13  C   UNL     1       4.396  -0.165   1.567  0.00  0.00    +0.000 C 
ATOM     14  H   UNL     1       5.657   3.225   4.427  0.00  0.00    +0.000 HD
ENDROOT
BRANCH   1  16
ATOM     15  O   UNL     1       1.030   0.010   0.095  0.00  0.00    +0.000 OA
ATOM     16  C   UNL     1       2.301   0.010   0.095  0.00  0.00    +0.000 C 
BRANCH  16  17
ATOM     17  O   UNL     1       3.011  -0.542  -1.004  0.00  0.00    +0.000 OA
ATOM     18  H   UNL     1       4.011  -0.542  -1.004  0.00  0.00    +0.000 HD
ENDBRANCH  16  17
ENDBRANCH   1  16
BRANCH   9  19
ATOM     19  O   UNL     1       7.948  -2.543   5.413  0.00  0.00    +0.000 OA
BRANCH  19  20
ATOM     20  C   UNL     1       7.615  -3.685   4.638  0.00  0.00    +0.000 C 
BRANCH  20  21
ATOM     21  C   UNL     1       6.115  -3.925   4.708  0.00  0.00    +0.000 A 
ATOM     22  C   UNL     1       5.255  -2.840   4.737  0.00  0.00    +0.000 A 
ATOM     23  C   UNL     1       3.927  -3.170   5.094  0.00  0.00    +0.000 A 
ATOM     24  C   UNL     1       3.423  -4.390   5.056  0.00  0.00    +0.000 A 
ATOM     25  C   UNL     1       4.321  -5.417   4.958  0.00  0.00    +0.000 A 
ATOM     26  C   UNL     1       5.655  -5.170   4.740  0.00  0.00    +0.000 A 
ENDBRANCH  20  21
ENDBRANCH  19  20
ENDBRANCH   9  19
TORSDOF 5
