REMARK  Name = 
REMARK  10 active torsions:
REMARK  status: ('A' for Active; 'I' for Inactive)
REMARK    1  A    between atoms: C_1  and  O_2
REMARK    2  A    between atoms: O_2  and  C_3
REMARK    3  A    between atoms: C_5  and  C_6
REMARK    4  A    between atoms: C_15  and  C_16
REMARK    5  A    between atoms: C_16  and  O_18
REMARK    6  A    between atoms: C_21  and  C_22
REMARK    7  A    between atoms: C_22  and  C_23
REMARK    8  A    between atoms: C_22  and  C_24
REMARK    9  A    between atoms: C_22  and  C_25
REMARK   10  A    between atoms: C_25  and  O_26
REMARK                            x       y       z     vdW  Elec       q    Type
REMARK                         _______ _______ _______ _____ _____    ______ ____
ROOT
ATOM      1  C   UNL     1       0.894  -1.110  -2.299  0.00  0.00    +0.000 A 
ATOM      2  C   UNL     1      -0.087  -1.378  -3.240  0.00  0.00    +0.000 A 
ATOM      3  C   UNL     1       0.419  -1.655  -4.532  0.00  0.00    +0.000 A 
ATOM      4  C   UNL     1       1.638  -1.350  -4.941  0.00  0.00    +0.000 A 
ATOM      5  C   UNL     1       2.542  -1.028  -3.967  0.00  0.00    +0.000 A 
ATOM      6  C   UNL     1       2.148  -0.868  -2.661  0.00  0.00    +0.000 A 
ENDROOT
BRANCH   3   7
ATOM      7  C   UNL     1      -0.503  -2.352  -5.519  0.00  0.00    +0.000 A 
ATOM      8  C   UNL     1      -1.667  -1.752  -5.971  0.00  0.00    +0.000 A 
ATOM      9  C   UNL     1      -2.501  -2.613  -6.722  0.00  0.00    +0.000 A 
ATOM     10  C   UNL     1      -2.106  -3.747  -7.271  0.00  0.00    +0.000 A 
ATOM     11  C   UNL     1      -0.915  -4.254  -6.831  0.00  0.00    +0.000 A 
ATOM     12  C   UNL     1      -0.105  -3.527  -5.992  0.00  0.00    +0.000 A 
ATOM     13 CL   UNL     1       1.492  -4.166  -5.535  0.00  0.00    +0.000 Cl
ATOM     14  N   UNL     1      -2.904  -4.429  -8.300  0.00  0.00    +0.000 NA
ATOM     15  C   UNL     1      -2.477  -5.558  -8.823  0.00  0.00    +0.000 C 
ATOM     16  C   UNL     1      -3.953  -2.204  -6.911  0.00  0.00    +0.000 C 
BRANCH  16  17
ATOM     17  C   UNL     1      -4.013  -0.865  -7.628  0.00  0.00    +0.000 C 
ATOM     18  O   UNL     1      -4.606  -0.771  -8.748  0.00  0.00    +0.000 OA
BRANCH  17  19
ATOM     19  O   UNL     1      -3.407   0.280  -7.047  0.00  0.00    +0.000 OA
ATOM     20  H   UNL     1      -3.447   1.160  -7.519  0.00  0.00    +0.000 HD
ENDBRANCH  17  19
ENDBRANCH  16  17
ENDBRANCH   3   7
BRANCH   6  21
ATOM     21  C   UNL     1       3.157  -0.409  -1.621  0.00  0.00    +0.000 C 
ATOM     22  C   UNL     1       4.297  -1.412  -1.544  0.00  0.00    +0.000 C 
ATOM     23  C   UNL     1       3.706   0.953  -2.013  0.00  0.00    +0.000 C 
BRANCH  21  24
ATOM     24  C   UNL     1       2.478  -0.311  -0.265  0.00  0.00    +0.000 C 
BRANCH  24  25
ATOM     25  O   UNL     1       1.413   0.626  -0.336  0.00  0.00    +0.000 OA
ATOM     26  H   UNL     1       1.774   1.522  -0.594  0.00  0.00    +0.000 HD
ENDBRANCH  24  25
ENDBRANCH  21  24
ENDBRANCH   6  21
BRANCH   1  28
ATOM     27  C   UNL     1       1.024  -0.048  -0.085  0.00  0.00    +0.000 C 
ATOM     28  O   UNL     1       0.551  -1.093  -0.921  0.00  0.00    +0.000 OA
ENDBRANCH   1  28
TORSDOF 7
