REMARK  Name = 
REMARK  10 active torsions:
REMARK  status: ('A' for Active; 'I' for Inactive)
REMARK    1  A    between atoms: C_1  and  O_2
REMARK    2  A    between atoms: O_2  and  C_3
REMARK    3  A    between atoms: N_10  and  C_11
REMARK    4  A    between atoms: C_21  and  C_22
REMARK    5  A    between atoms: C_22  and  N_23
REMARK    6  A    between atoms: N_23  and  C_24
REMARK    7  A    between atoms: N_23  and  C_25
REMARK    8  A    between atoms: C_25  and  C_26
REMARK    9  A    between atoms: C_25  and  C_28
REMARK   10  A    between atoms: C_26  and  O_27
REMARK                            x       y       z     vdW  Elec       q    Type
REMARK                         _______ _______ _______ _____ _____    ______ ____
ROOT
ATOM      1  C   UNL     1       0.896   1.359  -1.990  0.00  0.00    +0.000 A 
ATOM      2  C   UNL     1      -0.084   1.925  -2.756  0.00  0.00    +0.000 A 
ATOM      3  C   UNL     1       0.197   3.066  -3.541  0.00  0.00    +0.000 A 
ATOM      4  N   UNL     1      -0.800   3.646  -4.283  0.00  0.00    +0.000 NA
ATOM      5  C   UNL     1      -0.468   4.694  -4.986  0.00  0.00    +0.000 A 
ATOM      6  N   UNL     1       0.772   5.266  -5.072  0.00  0.00    +0.000 NA
ATOM      7  C   UNL     1       1.738   4.714  -4.379  0.00  0.00    +0.000 A 
ATOM      8  N   UNL     1       3.091   5.281  -4.463  0.00  0.00    +0.000 N 
ATOM      9  C   UNL     1       1.514   3.580  -3.548  0.00  0.00    +0.000 A 
ATOM     10  C   UNL     1       2.513   2.968  -2.758  0.00  0.00    +0.000 A 
ATOM     11  C   UNL     1       2.203   1.883  -1.989  0.00  0.00    +0.000 A 
ATOM     12  H   UNL     1       3.854   4.863  -3.930  0.00  0.00    +0.000 HD
ENDROOT
BRANCH   8  13
ATOM     13  C   UNL     1       3.346   6.452  -5.315  0.00  0.00    +0.000 A 
ATOM     14  C   UNL     1       4.367   6.380  -6.241  0.00  0.00    +0.000 A 
ATOM     15  C   UNL     1       4.750   7.495  -6.975  0.00  0.00    +0.000 A 
ATOM     16  C   UNL     1       4.085   8.703  -6.766  0.00  0.00    +0.000 A 
ATOM     17  C   UNL     1       3.063   8.772  -5.840  0.00  0.00    +0.000 A 
ATOM     18 CL   UNL     1       2.203  10.255  -5.603  0.00  0.00    +0.000 Cl
ATOM     19  C   UNL     1       2.709   7.651  -5.124  0.00  0.00    +0.000 A 
ATOM     20  F   UNL     1       1.695   7.724  -4.238  0.00  0.00    +0.000 F 
ENDBRANCH   8  13
BRANCH   1  22
ATOM     21  C   UNL     1       1.026  -0.096  -0.011  0.00  0.00    +0.000 C 
ATOM     22  O   UNL     1       0.553   0.151  -1.327  0.00  0.00    +0.000 OA
ENDBRANCH   1  22
BRANCH  11  23
ATOM     23  C   UNL     1       3.276   1.236  -1.129  0.00  0.00    +0.000 C 
BRANCH  23  24
ATOM     24  N   UNL     1       4.374   0.766  -1.985  0.00  0.00    +0.000 NA
ATOM     25  C   UNL     1       5.411   0.140  -1.153  0.00  0.00    +0.000 C 
BRANCH  24  26
ATOM     26  C   UNL     1       3.858  -0.218  -2.948  0.00  0.00    +0.000 C 
BRANCH  26  27
ATOM     27  C   UNL     1       2.786   0.429  -3.808  0.00  0.00    +0.000 C 
ATOM     28  N   UNL     1       2.958   0.502  -5.266  0.00  0.00    +0.000 N 
ATOM     29  O   UNL     1       1.740   0.907  -3.268  0.00  0.00    +0.000 OA
ATOM     30  H   UNL     1       2.239   0.936  -5.844  0.00  0.00    +0.000 HD
ATOM     31  H   UNL     1       3.798   0.118  -5.700  0.00  0.00    +0.000 HD
ENDBRANCH  26  27
BRANCH  26  32
ATOM     32  C   UNL     1       3.262  -1.397  -2.196  0.00  0.00    +0.000 C 
BRANCH  32  33
ATOM     33  O   UNL     1       2.201  -0.944  -1.369  0.00  0.00    +0.000 OA
ATOM     34  H   UNL     1       2.552  -0.274  -0.714  0.00  0.00    +0.000 HD
ENDBRANCH  32  33
ENDBRANCH  26  32
ENDBRANCH  24  26
ENDBRANCH  23  24
ENDBRANCH  11  23
TORSDOF 8
