
 OpenBabel03132514253D

 39 42  0  0  0  0  0  0  0  0999 V2000
    2.4920    0.0040   -0.0140 C   0  0  0  0  0  0  0  0  0  0  0  0
    0.9910   -0.0050    0.0130 C   0  0  0  0  0  0  0  0  0  0  0  0
    0.2580   -1.1970    0.0060 C   0  0  0  0  0  0  0  0  0  0  0  0
   -1.1080   -1.2020    0.0010 C   0  0  0  0  0  0  0  0  0  0  0  0
   -1.7990    0.0100   -0.0130 C   0  0  0  0  0  0  0  0  0  0  0  0
   -3.3187    0.0139   -0.0449 C   0  0  0  0  0  0  0  0  0  0  0  0
   -3.9568   -1.0851   -0.0588 O   0  0  0  0  0  0  0  0  0  0  0  0
   -4.0502    1.2888   -0.0597 N   0  0  0  0  0  0  0  0  0  0  0  0
   -3.3122    2.5600   -0.0437 C   0  0  0  0  0  0  0  0  0  0  0  0
   -2.8411    3.2902   -1.3030 C   0  0  0  0  0  0  0  0  0  0  0  0
   -3.3109    4.0901   -0.0854 C   0  0  0  0  0  0  0  0  0  0  0  0
   -1.1090    1.2060    0.0020 C   0  0  0  0  0  0  0  0  0  0  0  0
    0.2750    1.1840    0.0050 C   0  0  0  0  0  0  0  0  0  0  0  0
    1.0333    2.5013   -0.0006 C   0  0  0  0  0  0  0  0  0  0  0  0
    1.9055    2.7592   -1.0781 C   0  0  0  0  0  0  0  0  0  0  0  0
    2.6110    3.9343   -1.1273 C   0  0  0  0  0  0  0  0  0  0  0  0
    2.4198    4.8386   -0.0696 C   0  0  0  0  0  0  0  0  0  0  0  0
    2.9572    6.0614    0.1714 N   0  0  0  0  0  0  0  0  0  0  0  0
    2.4705    6.6092    1.3312 N   0  0  0  0  0  0  0  0  0  0  0  0
    1.6271    5.7246    1.8284 C   0  0  0  0  0  0  0  0  0  0  0  0
    1.5401    4.5718    0.9995 C   0  0  0  0  0  0  0  0  0  0  0  0
    0.8269    3.3714    1.0466 C   0  0  0  0  0  0  0  0  0  0  0  0
    2.8673   -0.5130    0.8443 H   0  0  0  0  0  0  0  0  0  0  0  0
    2.8357   -0.4833   -0.9024 H   0  0  0  0  0  0  0  0  0  0  0  0
    2.8429    1.0148   -0.0032 H   0  0  0  0  0  0  0  0  0  0  0  0
    0.7818   -2.1300    0.0045 H   0  0  0  0  0  0  0  0  0  0  0  0
   -1.6438   -2.1281    0.0078 H   0  0  0  0  0  0  0  0  0  0  0  0
   -5.0700    1.2914   -0.0812 H   0  0  0  0  0  0  0  0  0  0  0  0
   -3.1195    1.9502    0.8142 H   0  0  0  0  0  0  0  0  0  0  0  0
   -1.9534    3.2729   -1.9002 H   0  0  0  0  0  0  0  0  0  0  0  0
   -3.4385    3.2663   -2.1904 H   0  0  0  0  0  0  0  0  0  0  0  0
   -4.0428    4.8523    0.0829 H   0  0  0  0  0  0  0  0  0  0  0  0
   -2.6033    4.6407    0.4987 H   0  0  0  0  0  0  0  0  0  0  0  0
   -1.6368    2.1367    0.0112 H   0  0  0  0  0  0  0  0  0  0  0  0
    2.0172    2.0365   -1.8592 H   0  0  0  0  0  0  0  0  0  0  0  0
    3.2775    4.1526   -1.9354 H   0  0  0  0  0  0  0  0  0  0  0  0
    3.6390    6.5170   -0.4352 H   0  0  0  0  0  0  0  0  0  0  0  0
    1.0793    5.8573    2.7379 H   0  0  0  0  0  0  0  0  0  0  0  0
    0.1588    3.1413    1.8501 H   0  0  0  0  0  0  0  0  0  0  0  0
  1  2  1  0  0  0  0
  1 23  1  0  0  0  0
  1 24  1  0  0  0  0
  1 25  1  0  0  0  0
  2  3  1  0  0  0  0
  2 13  2  0  0  0  0
  3  4  2  0  0  0  0
  3 26  1  0  0  0  0
  4  5  1  0  0  0  0
  4 27  1  0  0  0  0
  5  6  1  0  0  0  0
  5 12  2  0  0  0  0
  6  7  2  0  0  0  0
  6  8  1  0  0  0  0
  8  9  1  0  0  0  0
  8 28  1  0  0  0  0
  9 10  1  0  0  0  0
  9 11  1  0  0  0  0
  9 29  1  0  0  0  0
 10 11  1  0  0  0  0
 10 30  1  0  0  0  0
 10 31  1  0  0  0  0
 11 32  1  0  0  0  0
 11 33  1  0  0  0  0
 12 13  1  0  0  0  0
 12 34  1  0  0  0  0
 13 14  1  0  0  0  0
 14 15  1  0  0  0  0
 14 22  2  0  0  0  0
 15 16  2  0  0  0  0
 15 35  1  0  0  0  0
 16 17  1  0  0  0  0
 16 36  1  0  0  0  0
 17 18  1  0  0  0  0
 17 21  2  0  0  0  0
 18 19  1  0  0  0  0
 18 37  1  0  0  0  0
 19 20  2  0  0  0  0
 20 21  1  0  0  0  0
 20 38  1  0  0  0  0
 21 22  1  0  0  0  0
 22 39  1  0  0  0  0
M  END
