
 OpenBabel03132512093D

 62 66  0  0  0  0  0  0  0  0999 V2000
    1.0410   -0.0900   -0.0150 C   0  0  0  0  0  0  0  0  0  0  0  0
    0.5343    0.7244    1.1642 C   0  0  0  0  0  0  0  0  0  0  0  0
    1.0410    2.1528    1.0484 C   0  0  0  0  0  0  0  0  0  0  0  0
   -0.9357    0.7244    1.1642 N   0  0  0  0  0  0  0  0  0  0  0  0
   -1.6707    0.1790    2.3145 C   0  0  0  0  0  0  0  0  0  0  0  0
   -2.9416    0.1790    2.3145 O   0  0  0  0  0  0  0  0  0  0  0  0
   -0.9107   -0.3849    3.5039 C   0  0  0  0  0  0  0  0  0  0  0  0
    0.1452    0.3312    3.9819 C   0  0  0  0  0  0  0  0  0  0  0  0
    0.8984   -0.1745    4.9681 C   0  0  0  0  0  0  0  0  0  0  0  0
    0.6338   -1.3986    5.5188 C   0  0  0  0  0  0  0  0  0  0  0  0
    1.4732   -1.8516    6.5390 N   0  0  0  0  0  0  0  0  0  0  0  0
    1.2735   -3.0542    7.1246 C   0  0  0  0  0  0  0  0  0  0  0  0
    2.1742   -3.4959    8.1991 N   0  0  0  0  0  0  0  0  0  0  0  0
    1.9662   -4.8012    8.8424 C   0  0  0  0  0  0  0  0  0  0  0  0
    2.0272   -6.0554    7.9832 C   0  0  0  0  0  0  0  0  0  0  0  0
    0.8966   -6.1056    6.9564 C   0  0  0  0  0  0  0  0  0  0  0  0
   -0.4366   -6.0124    7.6999 C   0  0  0  0  0  0  0  0  0  0  0  0
   -1.5673   -5.9673    6.8251 O   0  0  0  0  0  0  0  0  0  0  0  0
   -0.5042   -4.7542    8.5342 C   0  0  0  0  0  0  0  0  0  0  0  0
    0.6300   -4.6645    9.5423 C   0  0  0  0  0  0  0  0  0  0  0  0
    0.2199   -3.8846    6.7211 C   0  0  0  0  0  0  0  0  0  0  0  0
   -0.1192   -5.0949    7.1897 N   0  0  0  0  0  0  0  0  0  0  0  0
   -1.1653   -5.5338    6.5417 C   0  0  0  0  0  0  0  0  0  0  0  0
   -1.5559   -4.5854    5.5940 C   0  0  0  0  0  0  0  0  0  0  0  0
   -0.6818   -3.5043    5.6815 N   0  0  0  0  0  0  0  0  0  0  0  0
   -0.4561   -2.1951    5.0514 C   0  0  0  0  0  0  0  0  0  0  0  0
   -1.2239   -1.6445    4.0267 C   0  0  0  0  0  0  0  0  0  0  0  0
    1.0410    0.1105    2.4591 C   0  0  0  0  0  0  0  0  0  0  0  0
    1.6302    0.8880    3.4946 C   0  0  0  0  0  0  0  0  0  0  0  0
    2.2194    0.2399    4.5926 C   0  0  0  0  0  0  0  0  0  0  0  0
    1.9927   -1.0237    4.8007 C   0  0  0  0  0  0  0  0  0  0  0  0
    1.1521   -1.7382    3.9367 C   0  0  0  0  0  0  0  0  0  0  0  0
    0.8060   -1.1840    2.6804 C   0  0  0  0  0  0  0  0  0  0  0  0
    0.6843    0.3422   -0.9265 H   0  0  0  0  0  0  0  0  0  0  0  0
    0.6843   -1.0955    0.0665 H   0  0  0  0  0  0  0  0  0  0  0  0
    2.1110   -0.0900   -0.0150 H   0  0  0  0  0  0  0  0  0  0  0  0
    0.6843    2.5850    0.1369 H   0  0  0  0  0  0  0  0  0  0  0  0
    0.6843    2.7261    1.8785 H   0  0  0  0  0  0  0  0  0  0  0  0
    2.1110    2.1528    1.0484 H   0  0  0  0  0  0  0  0  0  0  0  0
   -1.4457    1.1029    0.3660 H   0  0  0  0  0  0  0  0  0  0  0  0
    0.3720    1.2931    3.5717 H   0  0  0  0  0  0  0  0  0  0  0  0
    1.7279    0.3936    5.3343 H   0  0  0  0  0  0  0  0  0  0  0  0
    2.9435   -2.8967    8.4982 H   0  0  0  0  0  0  0  0  0  0  0  0
    2.8010   -4.9845    9.4861 H   0  0  0  0  0  0  0  0  0  0  0  0
    1.9230   -6.9021    8.6290 H   0  0  0  0  0  0  0  0  0  0  0  0
    2.9638   -6.0738    7.4660 H   0  0  0  0  0  0  0  0  0  0  0  0
    0.9447   -7.0192    6.4016 H   0  0  0  0  0  0  0  0  0  0  0  0
    0.9893   -5.2843    6.2767 H   0  0  0  0  0  0  0  0  0  0  0  0
   -0.4768   -6.8969    8.3007 H   0  0  0  0  0  0  0  0  0  0  0  0
   -1.5238   -5.1389    6.2666 H   0  0  0  0  0  0  0  0  0  0  0  0
   -0.4178   -3.9187    7.8714 H   0  0  0  0  0  0  0  0  0  0  0  0
   -1.4348   -4.7418    9.0622 H   0  0  0  0  0  0  0  0  0  0  0  0
    0.5269   -5.4567   10.2542 H   0  0  0  0  0  0  0  0  0  0  0  0
    0.5868   -3.7179   10.0392 H   0  0  0  0  0  0  0  0  0  0  0  0
   -1.6478   -6.4737    6.7108 H   0  0  0  0  0  0  0  0  0  0  0  0
   -2.3816   -4.6737    4.9192 H   0  0  0  0  0  0  0  0  0  0  0  0
   -2.0587   -2.1888    3.6372 H   0  0  0  0  0  0  0  0  0  0  0  0
    1.6245    1.9565    3.4376 H   0  0  0  0  0  0  0  0  0  0  0  0
    2.8550    0.7860    5.2580 H   0  0  0  0  0  0  0  0  0  0  0  0
    2.4485   -1.5184    5.6328 H   0  0  0  0  0  0  0  0  0  0  0  0
    0.7741   -2.6969    4.2246 H   0  0  0  0  0  0  0  0  0  0  0  0
    0.3630   -1.7937    1.9208 H   0  0  0  0  0  0  0  0  0  0  0  0
  1  2  1  0  0  0  0
  1 34  1  0  0  0  0
  1 35  1  0  0  0  0
  1 36  1  0  0  0  0
  2  3  1  0  0  0  0
  2  4  1  0  0  0  0
  2 28  1  0  0  0  0
  3 37  1  0  0  0  0
  3 38  1  0  0  0  0
  3 39  1  0  0  0  0
  4  5  1  0  0  0  0
  4 40  1  0  0  0  0
  5  6  2  0  0  0  0
  5  7  1  0  0  0  0
  7  8  1  0  0  0  0
  7 27  2  0  0  0  0
  8  9  2  0  0  0  0
  8 41  1  0  0  0  0
  9 10  1  0  0  0  0
  9 42  1  0  0  0  0
 10 11  1  0  0  0  0
 10 26  2  0  0  0  0
 11 12  2  0  0  0  0
 12 13  1  0  0  0  0
 12 21  1  0  0  0  0
 13 14  1  0  0  0  0
 13 43  1  0  0  0  0
 14 15  1  0  0  0  0
 14 20  1  0  0  0  0
 14 44  1  0  0  0  0
 15 16  1  0  0  0  0
 15 45  1  0  0  0  0
 15 46  1  0  0  0  0
 16 17  1  0  0  0  0
 16 47  1  0  0  0  0
 16 48  1  0  0  0  0
 17 18  1  0  0  0  0
 17 19  1  0  0  0  0
 17 49  1  0  0  0  0
 18 50  1  0  0  0  0
 19 20  1  0  0  0  0
 19 51  1  0  0  0  0
 19 52  1  0  0  0  0
 20 53  1  0  0  0  0
 20 54  1  0  0  0  0
 21 22  2  0  0  0  0
 21 25  1  0  0  0  0
 22 23  1  0  0  0  0
 23 24  2  0  0  0  0
 23 55  1  0  0  0  0
 24 25  1  0  0  0  0
 24 56  1  0  0  0  0
 25 26  1  0  0  0  0
 26 27  1  0  0  0  0
 27 57  1  0  0  0  0
 28 29  1  0  0  0  0
 28 33  2  0  0  0  0
 29 30  2  0  0  0  0
 29 58  1  0  0  0  0
 30 31  1  0  0  0  0
 30 59  1  0  0  0  0
 31 32  2  0  0  0  0
 31 60  1  0  0  0  0
 32 33  1  0  0  0  0
 32 61  1  0  0  0  0
 33 62  1  0  0  0  0
M  END
