REMARK  Name = 
REMARK  6 active torsions:
REMARK  status: ('A' for Active; 'I' for Inactive)
REMARK    1  A    between atoms: C_2  and  O_3
REMARK    2  A    between atoms: C_2  and  C_4
REMARK    3  A    between atoms: C_11  and  C_12
REMARK    4  A    between atoms: C_15  and  O_16
REMARK    5  A    between atoms: O_16  and  C_17
REMARK    6  A    between atoms: C_17  and  C_18
REMARK                            x       y       z     vdW  Elec       q    Type
REMARK                         _______ _______ _______ _____ _____    ______ ____
ROOT
ATOM      1  C   UNL     1       3.082  -0.661   1.054  0.00  0.00    +0.000 A 
ATOM      2  C   UNL     1       4.078  -0.208   1.888  0.00  0.00    +0.000 A 
ATOM      3  N   UNL     1       4.360  -1.143   2.849  0.00  0.00    +0.000 N 
ATOM      4  C   UNL     1       3.579  -2.253   2.626  0.00  0.00    +0.000 A 
ATOM      5  C   UNL     1       3.574  -3.480   3.300  0.00  0.00    +0.000 A 
ATOM      6  C   UNL     1       2.718  -4.441   2.799  0.00  0.00    +0.000 A 
ATOM      7 CL   UNL     1       2.676  -6.009   3.566  0.00  0.00    +0.000 Cl
ATOM      8  C   UNL     1       1.894  -4.231   1.680  0.00  0.00    +0.000 A 
ATOM      9  C   UNL     1       1.907  -3.008   1.029  0.00  0.00    +0.000 A 
ATOM     10  C   UNL     1       2.752  -1.989   1.504  0.00  0.00    +0.000 A 
ATOM     11  H   UNL     1       5.036  -1.033   3.604  0.00  0.00    +0.000 HD
ENDROOT
BRANCH   8  12
ATOM     12  C   UNL     1       0.988  -5.346   1.184  0.00  0.00    +0.000 A 
ATOM     13  C   UNL     1       1.124  -5.883  -0.086  0.00  0.00    +0.000 A 
ATOM     14  C   UNL     1       0.049  -6.718  -0.473  0.00  0.00    +0.000 A 
ATOM     15  C   UNL     1      -0.822  -7.254   0.363  0.00  0.00    +0.000 A 
ATOM     16  C   UNL     1      -0.860  -6.725   1.623  0.00  0.00    +0.000 A 
ATOM     17  C   UNL     1       0.077  -5.807   2.033  0.00  0.00    +0.000 A 
BRANCH  15  18
ATOM     18  O   UNL     1      -1.673  -8.322  -0.026  0.00  0.00    +0.000 OA
BRANCH  18  19
ATOM     19  C   UNL     1      -2.596  -8.870   0.904  0.00  0.00    +0.000 C 
BRANCH  19  20
ATOM     20  C   UNL     1      -1.840  -9.420   2.103  0.00  0.00    +0.000 C 
ATOM     21  C   UNL     1      -2.449  -9.004   3.453  0.00  0.00    +0.000 C 
ATOM     22  C   UNL     1      -2.150 -10.431   3.939  0.00  0.00    +0.000 C 
ATOM     23  O   UNL     1      -2.223 -10.867   2.466  0.00  0.00    +0.000 OA
ENDBRANCH  19  20
ENDBRANCH  18  19
ENDBRANCH  15  18
ENDBRANCH   8  12
BRANCH   1  25
ATOM     24  O   UNL     1       1.051   0.079  -0.035  0.00  0.00    +0.000 OA
ATOM     25  C   UNL     1       2.322   0.079  -0.035  0.00  0.00    +0.000 C 
BRANCH  25  26
ATOM     26  O   UNL     1       3.032   0.770  -1.052  0.00  0.00    +0.000 OA
ATOM     27  H   UNL     1       4.032   0.770  -1.052  0.00  0.00    +0.000 HD
ENDBRANCH  25  26
ENDBRANCH   1  25
TORSDOF 6
