
 OpenBabel03132514253D

 72 77  0  0  0  0  0  0  0  0999 V2000
    1.0164   -0.0826   -0.0539 O   0  0  0  0  0  0  0  0  0  0  0  0
    2.5469   -0.0826   -0.0539 S   0  0  0  0  0  0  0  0  0  0  0  0
    3.0570    0.2416    1.3522 O   0  0  0  0  0  0  0  0  0  0  0  0
    3.1502   -1.7144   -0.5532 C   0  0  0  0  0  0  0  0  0  0  0  0
    2.6435   -2.0365   -1.9496 C   0  0  0  0  0  0  0  0  0  0  0  0
    3.1169   -1.0571   -2.8624 O   0  0  0  0  0  0  0  0  0  0  0  0
    2.6435    0.2231   -2.4707 C   0  0  0  0  0  0  0  0  0  0  0  0
    1.1235    0.2231   -2.4707 C   0  0  0  0  0  0  0  0  0  0  0  0
    0.3798   -0.8923   -2.4721 C   0  0  0  0  0  0  0  0  0  0  0  0
   -0.9637   -0.4428   -2.4873 C   0  0  0  0  0  0  0  0  0  0  0  0
   -0.9310    0.9134   -2.4913 C   0  0  0  0  0  0  0  0  0  0  0  0
   -2.1542    1.8153   -2.5166 C   0  0  0  0  0  0  0  0  0  0  0  0
   -3.0988    1.7421   -1.4749 C   0  0  0  0  0  0  0  0  0  0  0  0
   -4.2063    2.5437   -1.4775 C   0  0  0  0  0  0  0  0  0  0  0  0
   -4.4034    3.4800   -2.5170 C   0  0  0  0  0  0  0  0  0  0  0  0
   -5.5015    4.3016   -2.4953 N   0  0  0  0  0  0  0  0  0  0  0  0
   -5.6215    5.1395   -3.4880 C   0  0  0  0  0  0  0  0  0  0  0  0
   -4.7762    5.2749   -4.5559 N   0  0  0  0  0  0  0  0  0  0  0  0
   -3.7297    4.4861   -4.5971 C   0  0  0  0  0  0  0  0  0  0  0  0
   -2.8092    4.5801   -5.7393 N   0  0  0  0  0  0  0  0  0  0  0  0
   -3.0683    5.5487   -6.8143 C   0  0  0  0  0  0  0  0  0  0  0  0
   -3.1189    6.8931   -6.4825 C   0  0  0  0  0  0  0  0  0  0  0  0
   -3.1944    7.8611   -7.4776 C   0  0  0  0  0  0  0  0  0  0  0  0
   -3.2418    7.4787   -8.8142 C   0  0  0  0  0  0  0  0  0  0  0  0
   -3.3094    8.4553   -9.8428 O   0  0  0  0  0  0  0  0  0  0  0  0
   -3.3572    8.0514  -11.2033 C   0  0  0  0  0  0  0  0  0  0  0  0
   -2.1093    7.2509  -11.5384 C   0  0  0  0  0  0  0  0  0  0  0  0
   -0.9447    7.8875  -11.8556 C   0  0  0  0  0  0  0  0  0  0  0  0
    0.1694    7.1259  -12.1745 C   0  0  0  0  0  0  0  0  0  0  0  0
    0.1019    5.7415  -12.1837 C   0  0  0  0  0  0  0  0  0  0  0  0
   -1.0654    5.1641  -11.8484 C   0  0  0  0  0  0  0  0  0  0  0  0
   -1.1363    3.8089  -11.8521 F   0  0  0  0  0  0  0  0  0  0  0  0
   -2.1757    5.8665  -11.5250 C   0  0  0  0  0  0  0  0  0  0  0  0
   -3.2219    6.1293   -9.1245 C   0  0  0  0  0  0  0  0  0  0  0  0
   -3.2987    5.6623  -10.7958 Cl  0  0  0  0  0  0  0  0  0  0  0  0
   -3.1060    5.1494   -8.1497 C   0  0  0  0  0  0  0  0  0  0  0  0
   -3.4595    3.5409   -3.5669 C   0  0  0  0  0  0  0  0  0  0  0  0
   -2.3299    2.6914   -3.5494 C   0  0  0  0  0  0  0  0  0  0  0  0
    0.3712    1.3513   -2.4692 O   0  0  0  0  0  0  0  0  0  0  0  0
    3.1502    1.1657   -1.2174 C   0  0  0  0  0  0  0  0  0  0  0  0
    3.9847    0.8800   -2.2854 C   0  0  0  0  0  0  0  0  0  0  0  0
    4.4320    2.0252   -2.9857 C   0  0  0  0  0  0  0  0  0  0  0  0
    3.8682    3.2170   -2.9100 C   0  0  0  0  0  0  0  0  0  0  0  0
    3.0011    3.4148   -1.8716 C   0  0  0  0  0  0  0  0  0  0  0  0
    2.6177    2.3722   -1.0628 C   0  0  0  0  0  0  0  0  0  0  0  0
    4.2202   -1.7144   -0.5532 H   0  0  0  0  0  0  0  0  0  0  0  0
    2.7935   -2.4524    0.1346 H   0  0  0  0  0  0  0  0  0  0  0  0
    3.0002   -3.0011   -2.2448 H   0  0  0  0  0  0  0  0  0  0  0  0
    1.5735   -2.0365   -1.9496 H   0  0  0  0  0  0  0  0  0  0  0  0
    3.0002    0.4498   -1.4877 H   0  0  0  0  0  0  0  0  0  0  0  0
    3.0002    0.9610   -3.1585 H   0  0  0  0  0  0  0  0  0  0  0  0
    0.7265   -1.9045   -2.4636 H   0  0  0  0  0  0  0  0  0  0  0  0
   -1.8395   -1.0575   -2.4942 H   0  0  0  0  0  0  0  0  0  0  0  0
   -2.9481    1.0511   -0.6720 H   0  0  0  0  0  0  0  0  0  0  0  0
   -4.9259    2.4617   -0.6899 H   0  0  0  0  0  0  0  0  0  0  0  0
   -6.4708    5.7900   -3.4648 H   0  0  0  0  0  0  0  0  0  0  0  0
   -1.9906    3.9734   -5.7859 H   0  0  0  0  0  0  0  0  0  0  0  0
   -3.0996    7.1880   -5.4541 H   0  0  0  0  0  0  0  0  0  0  0  0
   -3.2161    8.8984   -7.2157 H   0  0  0  0  0  0  0  0  0  0  0  0
   -4.2240    7.4452  -11.3651 H   0  0  0  0  0  0  0  0  0  0  0  0
   -3.4050    8.9168  -11.8308 H   0  0  0  0  0  0  0  0  0  0  0  0
   -0.8921    8.9562  -11.8582 H   0  0  0  0  0  0  0  0  0  0  0  0
    1.0913    7.6123  -12.4161 H   0  0  0  0  0  0  0  0  0  0  0  0
    0.9530    5.1500  -12.4496 H   0  0  0  0  0  0  0  0  0  0  0  0
   -3.0842    5.3647  -11.2650 H   0  0  0  0  0  0  0  0  0  0  0  0
   -3.0469    4.1146   -8.4155 H   0  0  0  0  0  0  0  0  0  0  0  0
   -1.6142    2.7346   -4.3436 H   0  0  0  0  0  0  0  0  0  0  0  0
    4.2656   -0.1163   -2.5562 H   0  0  0  0  0  0  0  0  0  0  0  0
    5.2865    1.9181   -3.6208 H   0  0  0  0  0  0  0  0  0  0  0  0
    4.0787    3.9865   -3.6231 H   0  0  0  0  0  0  0  0  0  0  0  0
    2.6156    4.3955   -1.6860 H   0  0  0  0  0  0  0  0  0  0  0  0
    1.8833    2.5341   -0.3016 H   0  0  0  0  0  0  0  0  0  0  0  0
  1  2  2  0  0  0  0
  2  3  2  0  0  0  0
  2  4  1  0  0  0  0
  2 40  1  0  0  0  0
  4  5  1  0  0  0  0
  4 46  1  0  0  0  0
  4 47  1  0  0  0  0
  5  6  1  0  0  0  0
  5 48  1  0  0  0  0
  5 49  1  0  0  0  0
  6  7  1  0  0  0  0
  7  8  1  0  0  0  0
  7 50  1  0  0  0  0
  7 51  1  0  0  0  0
  8  9  2  0  0  0  0
  8 39  1  0  0  0  0
  9 10  1  0  0  0  0
  9 52  1  0  0  0  0
 10 11  2  0  0  0  0
 10 53  1  0  0  0  0
 11 12  1  0  0  0  0
 11 39  1  0  0  0  0
 12 13  1  0  0  0  0
 12 38  2  0  0  0  0
 13 14  2  0  0  0  0
 13 54  1  0  0  0  0
 14 15  1  0  0  0  0
 14 55  1  0  0  0  0
 15 16  1  0  0  0  0
 15 37  2  0  0  0  0
 16 17  2  0  0  0  0
 17 18  1  0  0  0  0
 17 56  1  0  0  0  0
 18 19  2  0  0  0  0
 19 20  1  0  0  0  0
 19 37  1  0  0  0  0
 20 21  1  0  0  0  0
 20 57  1  0  0  0  0
 21 22  1  0  0  0  0
 21 36  2  0  0  0  0
 22 23  2  0  0  0  0
 22 58  1  0  0  0  0
 23 24  1  0  0  0  0
 23 59  1  0  0  0  0
 24 25  1  0  0  0  0
 24 34  2  0  0  0  0
 25 26  1  0  0  0  0
 26 27  1  0  0  0  0
 26 60  1  0  0  0  0
 26 61  1  0  0  0  0
 27 28  1  0  0  0  0
 27 33  2  0  0  0  0
 28 29  2  0  0  0  0
 28 62  1  0  0  0  0
 29 30  1  0  0  0  0
 29 63  1  0  0  0  0
 30 31  2  0  0  0  0
 30 64  1  0  0  0  0
 31 32  1  0  0  0  0
 31 33  1  0  0  0  0
 33 65  1  0  0  0  0
 34 35  1  0  0  0  0
 34 36  1  0  0  0  0
 36 66  1  0  0  0  0
 37 38  1  0  0  0  0
 38 67  1  0  0  0  0
 40 41  1  0  0  0  0
 40 45  2  0  0  0  0
 41 42  2  0  0  0  0
 41 68  1  0  0  0  0
 42 43  1  0  0  0  0
 42 69  1  0  0  0  0
 43 44  2  0  0  0  0
 43 70  1  0  0  0  0
 44 45  1  0  0  0  0
 44 71  1  0  0  0  0
 45 72  1  0  0  0  0
M  END
