REMARK  Name = 
REMARK  7 active torsions:
REMARK  status: ('A' for Active; 'I' for Inactive)
REMARK    1  A    between atoms: C_1  and  C_2
REMARK    2  A    between atoms: C_2  and  N_3
REMARK    3  A    between atoms: C_2  and  C_26
REMARK    4  A    between atoms: C_4  and  C_6
REMARK    5  A    between atoms: C_12  and  C_13
REMARK    6  A    between atoms: N_15  and  C_16
REMARK    7  A    between atoms: C_30  and  C_31
REMARK                            x       y       z     vdW  Elec       q    Type
REMARK                         _______ _______ _______ _____ _____    ______ ____
ROOT
ATOM      1  C   UNL     1      -1.499   0.508  -3.206  0.00  0.00    +0.000 A 
ATOM      2  C   UNL     1      -2.448  -0.402  -3.592  0.00  0.00    +0.000 A 
ATOM      3  N   UNL     1      -3.674   0.024  -3.185  0.00  0.00    +0.000 N 
ATOM      4  C   UNL     1      -3.577   1.217  -2.499  0.00  0.00    +0.000 A 
ATOM      5  N   UNL     1      -4.463   2.015  -1.907  0.00  0.00    +0.000 NA
ATOM      6  C   UNL     1      -4.073   3.125  -1.298  0.00  0.00    +0.000 A 
ATOM      7  C   UNL     1      -2.716   3.493  -1.280  0.00  0.00    +0.000 A 
ATOM      8  N   UNL     1      -1.830   2.691  -1.869  0.00  0.00    +0.000 NA
ATOM      9  C   UNL     1      -2.215   1.572  -2.478  0.00  0.00    +0.000 A 
ATOM     10  H   UNL     1      -4.548  -0.471  -3.362  0.00  0.00    +0.000 HD
ENDROOT
BRANCH   7  11
ATOM     11  C   UNL     1      -2.270   4.779  -0.603  0.00  0.00    +0.000 A 
ATOM     12  N   UNL     1      -1.798   5.802  -1.286  0.00  0.00    +0.000 NA
ATOM     13  N   UNL     1      -1.613   6.845  -0.491  0.00  0.00    +0.000 N 
ATOM     14  C   UNL     1      -1.098   8.158  -0.905  0.00  0.00    +0.000 C 
ATOM     15  C   UNL     1      -1.971   6.506   0.747  0.00  0.00    +0.000 A 
ATOM     16  C   UNL     1      -2.001   7.167   1.992  0.00  0.00    +0.000 A 
ATOM     17  C   UNL     1      -2.438   6.503   3.084  0.00  0.00    +0.000 A 
ATOM     18 CL   UNL     1      -2.483   7.344   4.653  0.00  0.00    +0.000 Cl
ATOM     19  C   UNL     1      -2.844   5.208   3.015  0.00  0.00    +0.000 A 
ATOM     20  C   UNL     1      -2.841   4.525   1.848  0.00  0.00    +0.000 A 
ATOM     21  C   UNL     1      -2.403   5.152   0.680  0.00  0.00    +0.000 A 
ENDBRANCH   7  11
BRANCH   1  23
ATOM     22  N   UNL     1       0.951   0.729  -2.396  0.00  0.00    +0.000 N 
ATOM     23  C   UNL     1      -0.004   0.435  -3.474  0.00  0.00    +0.000 C 
ATOM     24  O   UNL     1       0.419   0.119  -4.630  0.00  0.00    +0.000 OA
ATOM     25  H   UNL     1       1.954   0.680  -2.576  0.00  0.00    +0.000 HD
BRANCH  22  27
ATOM     26  C   UNL     1       0.968   0.085  -0.041  0.00  0.00    +0.000 C 
ATOM     27  C   UNL     1       0.461   1.094  -1.059  0.00  0.00    +0.000 C 
BRANCH  27  28
ATOM     28  C   UNL     1      -1.059   1.094  -1.059  0.00  0.00    +0.000 C 
ATOM     29  O   UNL     1      -1.695   2.158  -0.779  0.00  0.00    +0.000 OA
ATOM     30  N   UNL     1      -1.794  -0.137  -1.383  0.00  0.00    +0.000 N 
ATOM     31  C   UNL     1      -2.960  -0.556  -2.295  0.00  0.00    +0.000 C 
ATOM     32  C   UNL     1      -3.166  -1.752  -1.352  0.00  0.00    +0.000 C 
ATOM     33  C   UNL     1      -1.679  -1.619  -0.981  0.00  0.00    +0.000 C 
BRANCH  32  34
ATOM     34  C   UNL     1      -3.759  -3.065  -1.837  0.00  0.00    +0.000 C 
ATOM     35  N   UNL     1      -4.250  -4.154  -2.240  0.00  0.00    +0.000 NA
ENDBRANCH  32  34
ENDBRANCH  27  28
ENDBRANCH  22  27
ENDBRANCH   1  23
TORSDOF 5
