REMARK  Name = 
REMARK  11 active torsions:
REMARK  status: ('A' for Active; 'I' for Inactive)
REMARK    1  A    between atoms: C_1  and  C_2
REMARK    2  A    between atoms: C_2  and  N_3
REMARK    3  A    between atoms: N_3  and  C_4
REMARK    4  A    between atoms: N_3  and  S_5
REMARK    5  A    between atoms: S_5  and  C_6
REMARK    6  A    between atoms: N_8  and  C_9
REMARK    7  A    between atoms: C_12  and  C_13
REMARK    8  A    between atoms: C_16  and  C_17
REMARK    9  A    between atoms: C_21  and  O_22
REMARK   10  A    between atoms: O_22  and  C_23
REMARK   11  A    between atoms: C_27  and  O_28
REMARK                            x       y       z     vdW  Elec       q    Type
REMARK                         _______ _______ _______ _____ _____    ______ ____
ROOT
ATOM      1  C   UNL     1      12.977  -0.584   5.741  0.00  0.00    +0.000 A 
ATOM      2  N   UNL     1      13.847  -1.111   4.808  0.00  0.00    +0.000 NA
ATOM      3  C   UNL     1      15.224  -1.080   5.051  0.00  0.00    +0.000 A 
ATOM      4  N   UNL     1      16.395  -1.534   4.303  0.00  0.00    +0.000 NA
ATOM      5  C   UNL     1      17.453  -1.250   5.004  0.00  0.00    +0.000 A 
ATOM      6  N   UNL     1      17.085  -0.623   6.199  0.00  0.00    +0.000 N 
ATOM      7  C   UNL     1      15.710  -0.511   6.242  0.00  0.00    +0.000 A 
ATOM      8  C   UNL     1      14.819   0.015   7.170  0.00  0.00    +0.000 A 
ATOM      9  C   UNL     1      13.466  -0.017   6.918  0.00  0.00    +0.000 A 
ATOM     10 CL   UNL     1      12.331   0.672   8.104  0.00  0.00    +0.000 Cl
ATOM     11  H   UNL     1      17.729  -0.301   6.921  0.00  0.00    +0.000 HD
ENDROOT
BRANCH   1  15
ATOM     12  C   UNL     1       8.814  -0.682   4.790  0.00  0.00    +0.000 A 
ATOM     13  C   UNL     1       9.527  -1.869   4.778  0.00  0.00    +0.000 A 
ATOM     14  C   UNL     1      10.831  -1.761   5.316  0.00  0.00    +0.000 A 
ATOM     15  C   UNL     1      11.479  -0.623   5.486  0.00  0.00    +0.000 A 
ATOM     16  C   UNL     1      10.730   0.519   5.418  0.00  0.00    +0.000 A 
ATOM     17  C   UNL     1       9.414   0.479   5.027  0.00  0.00    +0.000 A 
BRANCH  12  21
ATOM     18  C   UNL     1       4.642  -0.947   3.916  0.00  0.00    +0.000 A 
ATOM     19  C   UNL     1       5.154  -1.710   4.952  0.00  0.00    +0.000 A 
ATOM     20  C   UNL     1       6.487  -1.386   5.298  0.00  0.00    +0.000 A 
ATOM     21  C   UNL     1       7.317  -0.708   4.527  0.00  0.00    +0.000 A 
ATOM     22  C   UNL     1       6.758  -0.030   3.479  0.00  0.00    +0.000 A 
ATOM     23  C   UNL     1       5.432  -0.194   3.159  0.00  0.00    +0.000 A 
BRANCH  18  27
ATOM     24  S   UNL     1       2.672  -1.106   2.169  0.00  0.00    +0.000 S 
ATOM     25  C   UNL     1       3.275  -2.655   1.453  0.00  0.00    +0.000 C 
ATOM     26  O   UNL     1       3.182   0.074   1.338  0.00  0.00    +0.000 OA
ATOM     27  N   UNL     1       3.197  -0.972   3.648  0.00  0.00    +0.000 NA
BRANCH  24  28
ATOM     28  N   UNL     1       0.912  -1.106   2.169  0.00  0.00    +0.000 NA
ATOM     29  C   UNL     1       0.422  -2.239   2.968  0.00  0.00    +0.000 C 
BRANCH  28  31
ATOM     30  C   UNL     1       0.928  -0.059  -0.036  0.00  0.00    +0.000 C 
ATOM     31  C   UNL     1       0.422  -1.231   0.789  0.00  0.00    +0.000 C 
ENDBRANCH  28  31
ENDBRANCH  24  28
ENDBRANCH  18  27
ENDBRANCH  12  21
ENDBRANCH   1  15
BRANCH   5  32
ATOM     32  O   UNL     1      18.788  -1.535   4.613  0.00  0.00    +0.000 OA
BRANCH  32  33
ATOM     33  C   UNL     1      19.042  -2.177   3.373  0.00  0.00    +0.000 C 
ATOM     34  C   UNL     1      18.564  -1.418   2.374  0.00  0.00    +0.000 C 
ATOM     35  O   UNL     1      17.159  -1.727   2.154  0.00  0.00    +0.000 OA
ATOM     36  C   UNL     1      16.933  -3.150   2.701  0.00  0.00    +0.000 C 
ATOM     37  C   UNL     1      16.804  -4.115   1.541  0.00  0.00    +0.000 C 
ATOM     38  C   UNL     1      18.067  -4.449   1.159  0.00  0.00    +0.000 C 
ATOM     39  O   UNL     1      18.956  -4.429   2.312  0.00  0.00    +0.000 OA
ATOM     40  C   UNL     1      18.302  -3.499   3.351  0.00  0.00    +0.000 C 
BRANCH  37  41
ATOM     41  O   UNL     1      16.089  -3.523   0.467  0.00  0.00    +0.000 OA
ATOM     42  H   UNL     1      16.569  -2.701   0.159  0.00  0.00    +0.000 HD
ENDBRANCH  37  41
ENDBRANCH  32  33
ENDBRANCH   5  32
TORSDOF 8
