REMARK  Name = 
REMARK  4 active torsions:
REMARK  status: ('A' for Active; 'I' for Inactive)
REMARK    1  A    between atoms: C_1  and  N_2
REMARK    2  A    between atoms: C_9  and  C_10
REMARK    3  A    between atoms: N_16  and  C_17
REMARK    4  A    between atoms: C_17  and  C_18
REMARK                            x       y       z     vdW  Elec       q    Type
REMARK                         _______ _______ _______ _____ _____    ______ ____
ROOT
ATOM      1  C   UNL     1      -6.984  -0.098   2.578  0.00  0.00    +0.000 A 
ATOM      2  C   UNL     1      -8.031  -0.688   1.897  0.00  0.00    +0.000 A 
ATOM      3  N   UNL     1      -9.284  -0.709   2.378  0.00  0.00    +0.000 NA
ATOM      4  C   UNL     1      -9.505  -0.133   3.563  0.00  0.00    +0.000 A 
ATOM      5  C   UNL     1      -8.516   0.454   4.319  0.00  0.00    +0.000 A 
ATOM      6  C   UNL     1      -7.217   0.484   3.827  0.00  0.00    +0.000 A 
ATOM      7  N   UNL     1      -8.829   1.043   5.629  0.00  0.00    +0.000 N 
ATOM      8  C   UNL     1      -7.765   1.667   6.428  0.00  0.00    +0.000 C 
ATOM      9  C   UNL     1      -6.691   0.636   6.736  0.00  0.00    +0.000 C 
ATOM     10  N   UNL     1     -10.878  -0.125   4.088  0.00  0.00    +0.000 N 
ATOM     11  H   UNL     1     -11.077   0.308   4.990  0.00  0.00    +0.000 HD
ENDROOT
BRANCH   1  20
ATOM     12  C   UNL     1       2.438   0.000   0.038  0.00  0.00    +0.000 C 
ATOM     13  N   UNL     1       1.018  -0.002  -0.296  0.00  0.00    +0.000 NA
ATOM     14  C   UNL     1       0.352   1.166   0.243  0.00  0.00    +0.000 C 
ATOM     15  C   UNL     1      -1.108   1.220  -0.180  0.00  0.00    +0.000 C 
ATOM     16  N   UNL     1      -1.814  -0.010   0.156  0.00  0.00    +0.000 N 
ATOM     17  C   UNL     1      -3.137  -0.026   0.796  0.00  0.00    +0.000 A 
ATOM     18  C   UNL     1      -3.273  -0.643   2.024  0.00  0.00    +0.000 A 
ATOM     19  C   UNL     1      -4.529  -0.688   2.635  0.00  0.00    +0.000 A 
ATOM     20  C   UNL     1      -5.589  -0.082   1.974  0.00  0.00    +0.000 A 
ATOM     21  C   UNL     1      -5.361   0.532   0.764  0.00  0.00    +0.000 A 
ATOM     22  N   UNL     1      -4.167   0.559   0.164  0.00  0.00    +0.000 NA
ATOM     23  C   UNL     1      -1.097  -1.207  -0.196  0.00  0.00    +0.000 C 
ATOM     24  C   UNL     1       0.344  -1.164   0.258  0.00  0.00    +0.000 C 
ENDBRANCH   1  20
BRANCH   7  25
ATOM     25  C   UNL     1     -10.207   1.006   6.140  0.00  0.00    +0.000 C 
BRANCH  25  26
ATOM     26  C   UNL     1     -10.239   0.244   7.455  0.00  0.00    +0.000 A 
ATOM     27  C   UNL     1      -9.046  -0.296   7.947  0.00  0.00    +0.000 A 
ATOM     28  C   UNL     1      -9.057  -1.165   8.935  0.00  0.00    +0.000 A 
ATOM     29  F   UNL     1      -7.924  -1.686   9.397  0.00  0.00    +0.000 F 
ATOM     30  C   UNL     1     -10.283  -1.526   9.483  0.00  0.00    +0.000 A 
ATOM     31  C   UNL     1     -11.343  -0.607   9.319  0.00  0.00    +0.000 A 
ATOM     32  C   UNL     1     -11.367   0.100   8.118  0.00  0.00    +0.000 A 
ATOM     33  F   UNL     1     -12.502   0.615   7.653  0.00  0.00    +0.000 F 
ENDBRANCH  25  26
ENDBRANCH   7  25
TORSDOF 3
