REMARK  Name = 
REMARK  8 active torsions:
REMARK  status: ('A' for Active; 'I' for Inactive)
REMARK    1  A    between atoms: C_2  and  O_3
REMARK    2  A    between atoms: C_2  and  C_4
REMARK    3  A    between atoms: C_11  and  C_12
REMARK    4  A    between atoms: C_15  and  O_16
REMARK    5  A    between atoms: O_16  and  C_17
REMARK    6  A    between atoms: C_17  and  C_18
REMARK    7  A    between atoms: C_18  and  C_19
REMARK    8  A    between atoms: C_19  and  N_20
REMARK                            x       y       z     vdW  Elec       q    Type
REMARK                         _______ _______ _______ _____ _____    ______ ____
ROOT
ATOM      1  C   UNL     1       0.838  -5.435   1.073  0.00  0.00    +0.000 A 
ATOM      2  C   UNL     1       0.976  -5.939  -0.210  0.00  0.00    +0.000 A 
ATOM      3  C   UNL     1      -0.098  -6.765  -0.620  0.00  0.00    +0.000 A 
ATOM      4  C   UNL     1      -0.970  -7.322   0.200  0.00  0.00    +0.000 A 
ATOM      5  C   UNL     1      -1.011  -6.826   1.473  0.00  0.00    +0.000 A 
ATOM      6  C   UNL     1      -0.075  -5.918   1.908  0.00  0.00    +0.000 A 
ENDROOT
BRANCH   1  14
ATOM      7  C   UNL     1       2.939  -0.752   1.100  0.00  0.00    +0.000 A 
ATOM      8  C   UNL     1       3.933  -0.328   1.951  0.00  0.00    +0.000 A 
ATOM      9  N   UNL     1       4.210  -1.293   2.882  0.00  0.00    +0.000 N 
ATOM     10  C   UNL     1       3.428  -2.394   2.622  0.00  0.00    +0.000 A 
ATOM     11  C   UNL     1       3.419  -3.642   3.256  0.00  0.00    +0.000 A 
ATOM     12  C   UNL     1       2.564  -4.585   2.722  0.00  0.00    +0.000 A 
ATOM     13 CL   UNL     1       2.517  -6.177   3.438  0.00  0.00    +0.000 Cl
ATOM     14  C   UNL     1       1.743  -4.338   1.608  0.00  0.00    +0.000 A 
ATOM     15  C   UNL     1       1.760  -3.095   0.996  0.00  0.00    +0.000 A 
ATOM     16  C   UNL     1       2.606  -2.093   1.506  0.00  0.00    +0.000 A 
ATOM     17  H   UNL     1       4.885  -1.209   3.643  0.00  0.00    +0.000 HD
BRANCH   7  19
ATOM     18  O   UNL     1       0.908   0.021   0.034  0.00  0.00    +0.000 OA
ATOM     19  C   UNL     1       2.179   0.021   0.034  0.00  0.00    +0.000 C 
BRANCH  19  20
ATOM     20  O   UNL     1       2.889   0.743  -0.961  0.00  0.00    +0.000 OA
ATOM     21  H   UNL     1       3.889   0.743  -0.961  0.00  0.00    +0.000 HD
ENDBRANCH  19  20
ENDBRANCH   7  19
ENDBRANCH   1  14
BRANCH   4  22
ATOM     22  O   UNL     1      -1.820  -8.380  -0.218  0.00  0.00    +0.000 OA
BRANCH  22  23
ATOM     23  C   UNL     1      -2.744  -8.951   0.695  0.00  0.00    +0.000 C 
BRANCH  23  24
ATOM     24  C   UNL     1      -1.991  -9.532   1.881  0.00  0.00    +0.000 C 
BRANCH  24  25
ATOM     25  C   UNL     1      -1.210  -8.429   2.575  0.00  0.00    +0.000 C 
BRANCH  25  26
ATOM     26  N   UNL     1      -2.139  -7.391   3.045  0.00  0.00    +0.000 NA
ATOM     27  C   UNL     1      -2.219  -7.341   4.591  0.00  0.00    +0.000 C 
ATOM     28  C   UNL     1      -2.834  -5.941   4.854  0.00  0.00    +0.000 C 
ATOM     29  C   UNL     1      -2.185  -5.035   3.787  0.00  0.00    +0.000 C 
ATOM     30  F   UNL     1      -1.151  -4.366   4.290  0.00  0.00    +0.000 F 
ATOM     31  C   UNL     1      -1.742  -5.957   2.637  0.00  0.00    +0.000 C 
ENDBRANCH  25  26
ENDBRANCH  24  25
ENDBRANCH  23  24
ENDBRANCH  22  23
ENDBRANCH   4  22
TORSDOF 8
