REMARK  Name = 
REMARK  4 active torsions:
REMARK  status: ('A' for Active; 'I' for Inactive)
REMARK    1  A    between atoms: N_1  and  C_2
REMARK    2  A    between atoms: C_2  and  C_3
REMARK    3  A    between atoms: C_6  and  N_7
REMARK    4  A    between atoms: C_8  and  C_9
REMARK                            x       y       z     vdW  Elec       q    Type
REMARK                         _______ _______ _______ _____ _____    ______ ____
ROOT
ATOM      1  N   UNL     1       2.159  -6.191   0.065  0.00  0.00    +0.000 N 
ATOM      2  C   UNL     1       2.674  -7.036  -0.805  0.00  0.00    +0.000 A 
ATOM      3  N   UNL     1       3.011  -8.169  -0.206  0.00  0.00    +0.000 NA
ATOM      4  C   UNL     1       2.715  -8.071   1.089  0.00  0.00    +0.000 A 
ATOM      5  C   UNL     1       2.836  -8.923   2.207  0.00  0.00    +0.000 A 
ATOM      6  N   UNL     1       2.422  -8.490   3.418  0.00  0.00    +0.000 NA
ATOM      7  C   UNL     1       1.884  -7.254   3.586  0.00  0.00    +0.000 A 
ATOM      8  C   UNL     1       1.747  -6.393   2.553  0.00  0.00    +0.000 A 
ATOM      9  C   UNL     1       2.155  -6.776   1.273  0.00  0.00    +0.000 A 
ENDROOT
BRANCH   2  10
ATOM     10  C   UNL     1       2.855  -6.752  -2.287  0.00  0.00    +0.000 A 
ATOM     11  N   UNL     1       2.263  -7.691  -3.683  0.00  0.00    +0.000 NA
ATOM     12  O   UNL     1       2.998  -6.765  -4.951  0.00  0.00    +0.000 OA
ATOM     13  N   UNL     1       3.662  -5.787  -4.277  0.00  0.00    +0.000 NA
ATOM     14  C   UNL     1       3.598  -5.756  -2.907  0.00  0.00    +0.000 A 
ATOM     15  N   UNL     1       4.285  -4.715  -2.130  0.00  0.00    +0.000 N 
ATOM     16  H   UNL     1       4.824  -3.993  -2.609  0.00  0.00    +0.000 HD
ATOM     17  H   UNL     1       4.222  -4.713  -1.112  0.00  0.00    +0.000 HD
ENDBRANCH   2  10
BRANCH   1  21
ATOM     18  C   UNL     1       0.949  -2.249  -0.842  0.00  0.00    +0.000 A 
ATOM     19  C   UNL     1       0.381  -3.298  -1.547  0.00  0.00    +0.000 A 
ATOM     20  C   UNL     1       0.688  -4.575  -1.021  0.00  0.00    +0.000 A 
ATOM     21  C   UNL     1       1.683  -4.823  -0.189  0.00  0.00    +0.000 A 
ATOM     22  C   UNL     1       2.248  -3.739   0.424  0.00  0.00    +0.000 A 
ATOM     23  C   UNL     1       1.904  -2.461   0.057  0.00  0.00    +0.000 A 
BRANCH  18  24
ATOM     24  C   UNL     1       0.442  -0.840  -1.101  0.00  0.00    +0.000 C 
BRANCH  24  25
ATOM     25  N   UNL     1       0.932   0.058  -0.045  0.00  0.00    +0.000 NA
ATOM     26  H   UNL     1       0.592  -0.264   0.861  0.00  0.00    +0.000 HD
ATOM     27  H   UNL     1       1.952   0.058  -0.045  0.00  0.00    +0.000 HD
ENDBRANCH  24  25
ENDBRANCH  18  24
ENDBRANCH   1  21
TORSDOF 4
