REMARK  Name = 
REMARK  5 active torsions:
REMARK  status: ('A' for Active; 'I' for Inactive)
REMARK    1  A    between atoms: C_2  and  O_3
REMARK    2  A    between atoms: C_2  and  C_4
REMARK    3  A    between atoms: C_11  and  C_12
REMARK    4  A    between atoms: C_15  and  C_16
REMARK    5  A    between atoms: C_18  and  O_19
REMARK                            x       y       z     vdW  Elec       q    Type
REMARK                         _______ _______ _______ _____ _____    ______ ____
ROOT
ATOM      1  C   UNL     1       3.081  -1.275   0.559  0.00  0.00    +0.000 A 
ATOM      2  N   UNL     1       4.073  -1.337   1.398  0.00  0.00    +0.000 NA
ATOM      3  N   UNL     1       4.434  -2.669   1.621  0.00  0.00    +0.000 N 
ATOM      4  C   UNL     1       3.613  -3.487   0.872  0.00  0.00    +0.000 A 
ATOM      5  C   UNL     1       3.522  -4.864   0.708  0.00  0.00    +0.000 A 
ATOM      6  C   UNL     1       2.566  -5.396  -0.130  0.00  0.00    +0.000 A 
ATOM      7 CL   UNL     1       2.446  -7.161  -0.324  0.00  0.00    +0.000 Cl
ATOM      8  C   UNL     1       1.692  -4.561  -0.827  0.00  0.00    +0.000 A 
ATOM      9  C   UNL     1       1.768  -3.191  -0.676  0.00  0.00    +0.000 A 
ATOM     10  C   UNL     1       2.731  -2.642   0.176  0.00  0.00    +0.000 A 
ATOM     11  H   UNL     1       5.183  -2.986   2.237  0.00  0.00    +0.000 HD
ENDROOT
BRANCH   8  12
ATOM     12  C   UNL     1       0.652  -5.164  -1.757  0.00  0.00    +0.000 A 
ATOM     13  C   UNL     1      -0.320  -6.061  -1.233  0.00  0.00    +0.000 A 
ATOM     14  C   UNL     1      -1.037  -6.890  -2.110  0.00  0.00    +0.000 A 
ATOM     15  C   UNL     1      -1.017  -6.656  -3.389  0.00  0.00    +0.000 A 
ATOM     16  C   UNL     1      -0.290  -5.569  -3.893  0.00  0.00    +0.000 A 
ATOM     17  C   UNL     1       0.664  -4.923  -3.069  0.00  0.00    +0.000 A 
BRANCH  15  18
ATOM     18  C   UNL     1      -1.784  -7.561  -4.339  0.00  0.00    +0.000 C 
ATOM     19  C   UNL     1      -0.804  -8.194  -5.334  0.00  0.00    +0.000 C 
ATOM     20  C   UNL     1      -1.781  -7.793  -6.497  0.00  0.00    +0.000 C 
ATOM     21  C   UNL     1      -2.410  -6.790  -5.514  0.00  0.00    +0.000 C 
BRANCH  20  22
ATOM     22  O   UNL     1      -2.619  -8.908  -6.710  0.00  0.00    +0.000 OA
ATOM     23  H   UNL     1      -2.942  -9.256  -5.830  0.00  0.00    +0.000 HD
ENDBRANCH  20  22
ENDBRANCH  15  18
ENDBRANCH   8  12
BRANCH   1  25
ATOM     24  O   UNL     1       1.050  -0.054   0.068  0.00  0.00    +0.000 OA
ATOM     25  C   UNL     1       2.321  -0.054   0.068  0.00  0.00    +0.000 C 
BRANCH  25  26
ATOM     26  O   UNL     1       3.031   1.087  -0.391  0.00  0.00    +0.000 OA
ATOM     27  H   UNL     1       4.031   1.087  -0.391  0.00  0.00    +0.000 HD
ENDBRANCH  25  26
ENDBRANCH   1  25
TORSDOF 5
