REMARK  Name = 
REMARK  9 active torsions:
REMARK  status: ('A' for Active; 'I' for Inactive)
REMARK    1  A    between atoms: C_1  and  O_2
REMARK    2  A    between atoms: O_2  and  C_3
REMARK    3  A    between atoms: N_10  and  C_11
REMARK    4  A    between atoms: C_21  and  C_22
REMARK    5  A    between atoms: C_22  and  N_23
REMARK    6  A    between atoms: N_23  and  C_24
REMARK    7  A    between atoms: N_23  and  C_25
REMARK    8  A    between atoms: C_25  and  C_26
REMARK    9  A    between atoms: N_30  and  C_31
REMARK                            x       y       z     vdW  Elec       q    Type
REMARK                         _______ _______ _______ _____ _____    ______ ____
ROOT
ATOM      1  C   UNL     1       0.788   2.475  -0.440  0.00  0.00    +0.000 A 
ATOM      2  C   UNL     1      -0.229   3.387  -0.397  0.00  0.00    +0.000 A 
ATOM      3  C   UNL     1       0.019   4.709   0.036  0.00  0.00    +0.000 A 
ATOM      4  N   UNL     1      -1.013   5.609   0.106  0.00  0.00    +0.000 NA
ATOM      5  C   UNL     1      -0.711   6.811   0.511  0.00  0.00    +0.000 A 
ATOM      6  N   UNL     1       0.529   7.274   0.860  0.00  0.00    +0.000 NA
ATOM      7  C   UNL     1       1.528   6.428   0.785  0.00  0.00    +0.000 A 
ATOM      8  N   UNL     1       2.881   6.890   1.125  0.00  0.00    +0.000 N 
ATOM      9  C   UNL     1       1.340   5.075   0.382  0.00  0.00    +0.000 A 
ATOM     10  C   UNL     1       2.377   4.118   0.316  0.00  0.00    +0.000 A 
ATOM     11  C   UNL     1       2.100   2.841  -0.082  0.00  0.00    +0.000 A 
ATOM     12  H   UNL     1       3.669   6.244   1.072  0.00  0.00    +0.000 HD
ENDROOT
BRANCH   8  13
ATOM     13  C   UNL     1       3.100   8.282   1.543  0.00  0.00    +0.000 A 
ATOM     14  C   UNL     1       3.868   9.100   0.741  0.00  0.00    +0.000 A 
ATOM     15  C   UNL     1       4.029  10.448   1.034  0.00  0.00    +0.000 A 
ATOM     16  C   UNL     1       3.398  10.975   2.160  0.00  0.00    +0.000 A 
ATOM     17  C   UNL     1       2.628  10.154   2.962  0.00  0.00    +0.000 A 
ATOM     18 CL   UNL     1       1.808  10.806   4.339  0.00  0.00    +0.000 Cl
ATOM     19  C   UNL     1       2.492   8.821   2.648  0.00  0.00    +0.000 A 
ATOM     20  F   UNL     1       1.720   8.034   3.425  0.00  0.00    +0.000 F 
ENDBRANCH   8  13
BRANCH   1  22
ATOM     21  C   UNL     1       0.919   0.058  -0.002  0.00  0.00    +0.000 C 
ATOM     22  O   UNL     1       0.445   1.142  -0.788  0.00  0.00    +0.000 OA
ENDBRANCH   1  22
BRANCH  11  23
ATOM     23  C   UNL     1       3.214   1.809  -0.138  0.00  0.00    +0.000 C 
BRANCH  23  24
ATOM     24  N   UNL     1       4.252   2.259  -1.077  0.00  0.00    +0.000 NA
ATOM     25  C   UNL     1       5.330   1.261  -1.131  0.00  0.00    +0.000 C 
BRANCH  24  26
ATOM     26  C   UNL     1       3.665   2.420  -2.415  0.00  0.00    +0.000 C 
ATOM     27  C   UNL     1       2.356   1.647  -2.651  0.00  0.00    +0.000 C 
ATOM     28  N   UNL     1       1.873   2.867  -3.452  0.00  0.00    +0.000 NA
ATOM     29  C   UNL     1       2.179   2.819  -4.889  0.00  0.00    +0.000 C 
ATOM     30  C   UNL     1       2.848   3.710  -2.615  0.00  0.00    +0.000 C 
BRANCH  26  31
ATOM     31  C   UNL     1       4.923   2.131  -3.219  0.00  0.00    +0.000 C 
ATOM     32  N   UNL     1       6.182   1.819  -2.527  0.00  0.00    +0.000 N 
ATOM     33  O   UNL     1       4.886   2.159  -4.489  0.00  0.00    +0.000 OA
ATOM     34  H   UNL     1       7.026   1.625  -3.066  0.00  0.00    +0.000 HD
ATOM     35  H   UNL     1       6.211   1.796  -1.507  0.00  0.00    +0.000 HD
ENDBRANCH  26  31
ENDBRANCH  24  26
ENDBRANCH  23  24
ENDBRANCH  11  23
TORSDOF 6
