
 OpenBabel03132512093D

 57 59  0  0  0  0  0  0  0  0999 V2000
    0.9037   -0.0101    0.0252 C   0  0  0  0  0  0  0  0  0  0  0  0
    0.4304    1.2586    0.4529 O   0  0  0  0  0  0  0  0  0  0  0  0
    0.9037    1.5225    1.7654 C   0  0  0  0  0  0  0  0  0  0  0  0
    0.3971    0.4470    2.7125 C   0  0  0  0  0  0  0  0  0  0  0  0
    0.8871   -0.8663    2.2698 N   0  0  0  0  0  0  0  0  0  0  0  0
    0.3971   -1.9064    3.1857 C   0  0  0  0  0  0  0  0  0  0  0  0
   -1.1229   -1.9064    3.1857 C   0  0  0  0  0  0  0  0  0  0  0  0
   -1.8013   -0.7211    3.1856 C   0  0  0  0  0  0  0  0  0  0  0  0
   -3.2147   -0.7195    3.2002 C   0  0  0  0  0  0  0  0  0  0  0  0
   -4.0101    0.4616    3.2020 C   0  0  0  0  0  0  0  0  0  0  0  0
   -3.3441    1.7712    3.1534 N   0  0  0  0  0  0  0  0  0  0  0  0
   -4.1452    3.0037    3.1543 C   0  0  0  0  0  0  0  0  0  0  0  0
   -4.0633    3.8947    2.1041 C   0  0  0  0  0  0  0  0  0  0  0  0
   -4.8166    5.0616    2.0919 C   0  0  0  0  0  0  0  0  0  0  0  0
   -5.6674    5.3281    3.1634 C   0  0  0  0  0  0  0  0  0  0  0  0
   -5.7490    4.4340    4.2142 C   0  0  0  0  0  0  0  0  0  0  0  0
   -6.8331    4.7342    5.5290 Cl  0  0  0  0  0  0  0  0  0  0  0  0
   -4.9864    3.2881    4.1992 C   0  0  0  0  0  0  0  0  0  0  0  0
   -5.0897    2.4118    5.2191 F   0  0  0  0  0  0  0  0  0  0  0  0
   -5.3197    0.4144    3.2459 N   0  0  0  0  0  0  0  0  0  0  0  0
   -5.9019   -0.8241    3.2661 C   0  0  0  0  0  0  0  0  0  0  0  0
   -5.2917   -1.9770    3.2444 N   0  0  0  0  0  0  0  0  0  0  0  0
   -3.9207   -1.9435    3.2135 C   0  0  0  0  0  0  0  0  0  0  0  0
   -3.1893   -3.1519    3.1857 C   0  0  0  0  0  0  0  0  0  0  0  0
   -1.8224   -3.1285    3.1859 C   0  0  0  0  0  0  0  0  0  0  0  0
   -1.0995   -4.3507    3.1862 O   0  0  0  0  0  0  0  0  0  0  0  0
    0.3204   -4.3359    3.1864 C   0  0  0  0  0  0  0  0  0  0  0  0
    0.3971   -1.1395    0.9110 C   0  0  0  0  0  0  0  0  0  0  0  0
   -1.1229   -1.1395    0.9110 C   0  0  0  0  0  0  0  0  0  0  0  0
    0.9037   -0.0640   -0.0361 C   0  0  0  0  0  0  0  0  0  0  0  0
    1.7489   -0.4319   -1.1813 N   0  0  0  0  0  0  0  0  0  0  0  0
    0.5967    1.1532    0.1620 O   0  0  0  0  0  0  0  0  0  0  0  0
    0.5471   -0.2089   -0.9638 H   0  0  0  0  0  0  0  0  0  0  0  0
    0.5471   -0.7672    0.6919 H   0  0  0  0  0  0  0  0  0  0  0  0
    1.9737   -0.0101    0.0252 H   0  0  0  0  0  0  0  0  0  0  0  0
    1.9737    1.5225    1.7654 H   0  0  0  0  0  0  0  0  0  0  0  0
    0.5471    2.4784    2.0877 H   0  0  0  0  0  0  0  0  0  0  0  0
    0.7538    0.6459    3.7015 H   0  0  0  0  0  0  0  0  0  0  0  0
   -0.6729    0.4470    2.7125 H   0  0  0  0  0  0  0  0  0  0  0  0
    0.7538   -2.8623    2.8635 H   0  0  0  0  0  0  0  0  0  0  0  0
    0.7538   -1.7075    4.1747 H   0  0  0  0  0  0  0  0  0  0  0  0
   -1.2641    0.2042    3.1745 H   0  0  0  0  0  0  0  0  0  0  0  0
   -2.3261    1.8246    3.1189 H   0  0  0  0  0  0  0  0  0  0  0  0
   -3.4082    3.6832    1.2850 H   0  0  0  0  0  0  0  0  0  0  0  0
   -4.7449    5.7456    1.2723 H   0  0  0  0  0  0  0  0  0  0  0  0
   -6.2554    6.2220    3.1724 H   0  0  0  0  0  0  0  0  0  0  0  0
   -6.9709   -0.8495    3.3037 H   0  0  0  0  0  0  0  0  0  0  0  0
   -3.7067   -4.0882    3.1645 H   0  0  0  0  0  0  0  0  0  0  0  0
    0.6719   -3.8280    2.3127 H   0  0  0  0  0  0  0  0  0  0  0  0
    0.6716   -3.8276    4.0600 H   0  0  0  0  0  0  0  0  0  0  0  0
    0.6876   -5.3409    3.1866 H   0  0  0  0  0  0  0  0  0  0  0  0
    0.7538   -2.0955    0.5888 H   0  0  0  0  0  0  0  0  0  0  0  0
   -1.4796   -0.1836    1.2333 H   0  0  0  0  0  0  0  0  0  0  0  0
   -1.4796   -1.3384   -0.0780 H   0  0  0  0  0  0  0  0  0  0  0  0
   -1.4796   -1.8966    1.5778 H   0  0  0  0  0  0  0  0  0  0  0  0
    2.0889    0.2898   -1.8168 H   0  0  0  0  0  0  0  0  0  0  0  0
    1.9953   -1.4088   -1.3403 H   0  0  0  0  0  0  0  0  0  0  0  0
  1  2  1  0  0  0  0
  1 33  1  0  0  0  0
  1 34  1  0  0  0  0
  1 35  1  0  0  0  0
  2  3  1  0  0  0  0
  3  4  1  0  0  0  0
  3 36  1  0  0  0  0
  3 37  1  0  0  0  0
  4  5  1  0  0  0  0
  4 38  1  0  0  0  0
  4 39  1  0  0  0  0
  5  6  1  0  0  0  0
  5 28  1  0  0  0  0
  6  7  1  0  0  0  0
  6 40  1  0  0  0  0
  6 41  1  0  0  0  0
  7  8  1  0  0  0  0
  7 25  2  0  0  0  0
  8  9  2  0  0  0  0
  8 42  1  0  0  0  0
  9 10  1  0  0  0  0
  9 23  1  0  0  0  0
 10 11  1  0  0  0  0
 10 20  2  0  0  0  0
 11 12  1  0  0  0  0
 11 43  1  0  0  0  0
 12 13  1  0  0  0  0
 12 18  2  0  0  0  0
 13 14  2  0  0  0  0
 13 44  1  0  0  0  0
 14 15  1  0  0  0  0
 14 45  1  0  0  0  0
 15 16  2  0  0  0  0
 15 46  1  0  0  0  0
 16 17  1  0  0  0  0
 16 18  1  0  0  0  0
 18 19  1  0  0  0  0
 20 21  1  0  0  0  0
 21 22  2  0  0  0  0
 21 47  1  0  0  0  0
 22 23  1  0  0  0  0
 23 24  2  0  0  0  0
 24 25  1  0  0  0  0
 24 48  1  0  0  0  0
 25 26  1  0  0  0  0
 26 27  1  0  0  0  0
 27 49  1  0  0  0  0
 27 50  1  0  0  0  0
 27 51  1  0  0  0  0
 28 29  1  0  0  0  0
 28 30  1  0  0  0  0
 28 52  1  0  0  0  0
 29 53  1  0  0  0  0
 29 54  1  0  0  0  0
 29 55  1  0  0  0  0
 30 31  1  0  0  0  0
 30 32  2  0  0  0  0
 31 56  1  0  0  0  0
 31 57  1  0  0  0  0
M  END
