REMARK  Name = 
REMARK  14 active torsions:
REMARK  status: ('A' for Active; 'I' for Inactive)
REMARK    1  A    between atoms: C_1  and  O_2
REMARK    2  A    between atoms: O_2  and  C_3
REMARK    3  A    between atoms: C_5  and  S_6
REMARK    4  A    between atoms: S_6  and  C_7
REMARK    5  A    between atoms: C_10  and  O_11
REMARK    6  A    between atoms: O_11  and  C_12
REMARK    7  A    between atoms: C_14  and  C_15
REMARK    8  A    between atoms: C_15  and  C_16
REMARK    9  A    between atoms: C_21  and  N_22
REMARK   10  A    between atoms: C_23  and  C_24
REMARK   11  A    between atoms: C_26  and  O_27
REMARK   12  A    between atoms: O_27  and  C_28
REMARK   13  A    between atoms: C_28  and  C_29
REMARK   14  A    between atoms: C_28  and  C_30
REMARK                            x       y       z     vdW  Elec       q    Type
REMARK                         _______ _______ _______ _____ _____    ______ ____
ROOT
ATOM      1  C   UNL     1       4.236   1.505  -1.338  0.00  0.00    +0.000 C 
ATOM      2  O   UNL     1       5.423   1.759  -0.959  0.00  0.00    +0.000 OA
ATOM      3  N   UNL     1       3.963   1.210  -2.752  0.00  0.00    +0.000 N 
ATOM      4  C   UNL     1       2.591   0.917  -3.190  0.00  0.00    +0.000 A 
ATOM      5  C   UNL     1       2.345  -0.136  -4.048  0.00  0.00    +0.000 A 
ATOM      6  C   UNL     1       1.114  -0.406  -4.453  0.00  0.00    +0.000 A 
ATOM      7  C   UNL     1       0.079   0.314  -4.052  0.00  0.00    +0.000 A 
ATOM      8  C   UNL     1       0.252   1.383  -3.194  0.00  0.00    +0.000 A 
ATOM      9  N   UNL     1       1.529   1.697  -2.754  0.00  0.00    +0.000 NA
ATOM     10  H   UNL     1       4.726   1.209  -3.429  0.00  0.00    +0.000 HD
ENDROOT
BRANCH   6  11
ATOM     11  N   UNL     1       0.892  -1.532  -5.372  0.00  0.00    +0.000 N 
ATOM     12  H   UNL     1       1.681  -2.095  -5.689  0.00  0.00    +0.000 HD
ATOM     13  H   UNL     1      -0.052  -1.750  -5.692  0.00  0.00    +0.000 HD
ENDBRANCH   6  11
BRANCH   7  14
ATOM     14  C   UNL     1      -1.316  -0.040  -4.540  0.00  0.00    +0.000 C 
ATOM     15  N   UNL     1      -2.474  -0.333  -4.946  0.00  0.00    +0.000 NA
ENDBRANCH   7  14
BRANCH   1  16
ATOM     16  C   UNL     1       3.099   1.507  -0.329  0.00  0.00    +0.000 C 
BRANCH  16  22
ATOM     17  C   UNL     1       0.820   2.176  -0.985  0.00  0.00    +0.000 A 
ATOM     18  C   UNL     1      -0.180   3.111  -1.201  0.00  0.00    +0.000 A 
ATOM     19  C   UNL     1       0.300   4.425  -1.412  0.00  0.00    +0.000 A 
ATOM     20  C   UNL     1       1.511   4.841  -1.091  0.00  0.00    +0.000 A 
ATOM     21  C   UNL     1       2.436   3.870  -0.823  0.00  0.00    +0.000 A 
ATOM     22  C   UNL     1       2.068   2.550  -0.729  0.00  0.00    +0.000 A 
BRANCH  19  23
ATOM     23  S   UNL     1      -0.826   5.619  -2.176  0.00  0.00    +0.000 S 
ATOM     24  C   UNL     1      -1.316   5.024  -3.814  0.00  0.00    +0.000 C 
ATOM     25  O   UNL     1      -2.069   5.782  -1.299  0.00  0.00    +0.000 OA
ATOM     26  O   UNL     1      -0.119   6.969  -2.315  0.00  0.00    +0.000 OA
ENDBRANCH  19  23
BRANCH  17  28
ATOM     27  C   UNL     1       0.950  -0.084  -0.024  0.00  0.00    +0.000 C 
ATOM     28  O   UNL     1       0.477   0.799  -1.030  0.00  0.00    +0.000 OA
ENDBRANCH  17  28
BRANCH  20  29
ATOM     29  O   UNL     1       1.836   6.222  -1.027  0.00  0.00    +0.000 OA
ATOM     30  C   UNL     1       3.151   6.627  -0.678  0.00  0.00    +0.000 C 
ENDBRANCH  20  29
ENDBRANCH  16  22
ENDBRANCH   1  16
BRANCH   8  31
ATOM     31  O   UNL     1      -0.864   2.151  -2.768  0.00  0.00    +0.000 OA
BRANCH  31  32
ATOM     32  C   UNL     1      -0.677   3.248  -1.886  0.00  0.00    +0.000 C 
ATOM     33  C   UNL     1      -0.054   2.755  -0.590  0.00  0.00    +0.000 C 
ATOM     34  C   UNL     1       0.244   4.268  -2.536  0.00  0.00    +0.000 C 
ENDBRANCH  31  32
ENDBRANCH   8  31
TORSDOF 9
