REMARK  Name = 
REMARK  3 active torsions:
REMARK  status: ('A' for Active; 'I' for Inactive)
REMARK    1  A    between atoms: C_1  and  C_2
REMARK    2  A    between atoms: C_7  and  N_8
REMARK    3  A    between atoms: N_12  and  C_13
REMARK                            x       y       z     vdW  Elec       q    Type
REMARK                         _______ _______ _______ _____ _____    ______ ____
ROOT
ATOM      1  N   UNL     1       1.035   6.235   2.143  0.00  0.00    +0.000 N 
ATOM      2  C   UNL     1       0.589   6.713   3.459  0.00  0.00    +0.000 A 
ATOM      3  N   UNL     1       1.183   6.177   4.597  0.00  0.00    +0.000 NA
ATOM      4  C   UNL     1       0.780   6.444   5.811  0.00  0.00    +0.000 A 
ATOM      5  N   UNL     1       1.474   5.819   6.946  0.00  0.00    +0.000 N 
ATOM      6  C   UNL     1      -0.249   7.274   6.055  0.00  0.00    +0.000 A 
ATOM      7  O   UNL     1      -0.878   7.731   7.196  0.00  0.00    +0.000 OA
ATOM      8  C   UNL     1      -1.866   8.560   6.822  0.00  0.00    +0.000 A 
ATOM      9  C   UNL     1      -1.900   8.659   5.426  0.00  0.00    +0.000 A 
ATOM     10  C   UNL     1      -0.945   7.903   4.923  0.00  0.00    +0.000 A 
ATOM     11  N   UNL     1      -0.477   7.588   3.573  0.00  0.00    +0.000 NA
ATOM     12  H   UNL     1       1.435   6.891   1.471  0.00  0.00    +0.000 HD
ATOM     13  H   UNL     1       2.257   5.186   6.779  0.00  0.00    +0.000 HD
ENDROOT
BRANCH   1  20
ATOM     14  C   UNL     1       0.979  -0.053  -0.083  0.00  0.00    +0.000 C 
ATOM     15  C   UNL     1       0.472   0.832   1.045  0.00  0.00    +0.000 A 
ATOM     16  N   UNL     1      -0.066   0.465   2.191  0.00  0.00    +0.000 N 
ATOM     17  N   UNL     1      -0.203   1.510   2.994  0.00  0.00    +0.000 NA
ATOM     18  C   UNL     1       0.256   2.592   2.368  0.00  0.00    +0.000 A 
ATOM     19  C   UNL     1       0.375   3.959   2.696  0.00  0.00    +0.000 A 
ATOM     20  C   UNL     1       0.906   4.813   1.794  0.00  0.00    +0.000 A 
ATOM     21  C   UNL     1       1.324   4.389   0.573  0.00  0.00    +0.000 A 
ATOM     22  C   UNL     1       1.239   3.091   0.205  0.00  0.00    +0.000 A 
ATOM     23  C   UNL     1       0.701   2.154   1.089  0.00  0.00    +0.000 A 
ATOM     24  H   UNL     1      -0.339  -0.489   2.426  0.00  0.00    +0.000 HD
ENDBRANCH   1  20
BRANCH   5  25
ATOM     25  C   UNL     1       1.040   6.104   8.321  0.00  0.00    +0.000 C 
ATOM     26  C   UNL     1       0.041   7.230   8.595  0.00  0.00    +0.000 C 
ATOM     27  C   UNL     1      -0.384   5.770   8.773  0.00  0.00    +0.000 C 
ENDBRANCH   5  25
TORSDOF 2
