
 OpenBabel03142511493D

 64 69  0  0  0  0  0  0  0  0999 V2000
    0.9813   -0.0425   -0.0886 C   0  0  0  0  0  0  0  0  0  0  0  0
    0.4913   -1.1079   -0.9749 N   0  0  0  0  0  0  0  0  0  0  0  0
    0.8719   -1.0981   -2.5034 S   0  0  0  0  0  0  0  0  0  0  0  0
    0.3531    0.1884   -3.1500 O   0  0  0  0  0  0  0  0  0  0  0  0
    2.6220   -1.1755   -2.6728 N   0  0  0  0  0  0  0  0  0  0  0  0
    2.9771   -1.1663   -4.0992 C   0  0  0  0  0  0  0  0  0  0  0  0
    0.1228   -2.5287   -3.3209 C   0  0  0  0  0  0  0  0  0  0  0  0
   -0.9590   -2.4420   -4.1816 C   0  0  0  0  0  0  0  0  0  0  0  0
   -1.4977   -3.6964   -4.5534 C   0  0  0  0  0  0  0  0  0  0  0  0
   -0.8672   -4.8498   -4.4261 C   0  0  0  0  0  0  0  0  0  0  0  0
   -1.3404   -6.1045   -5.1417 C   0  0  0  0  0  0  0  0  0  0  0  0
   -1.3451   -6.2538   -6.5187 C   0  0  0  0  0  0  0  0  0  0  0  0
   -1.9866   -7.4332   -6.9653 C   0  0  0  0  0  0  0  0  0  0  0  0
   -2.2427   -8.4809   -6.2033 C   0  0  0  0  0  0  0  0  0  0  0  0
   -2.6154   -9.8302   -6.7958 C   0  0  0  0  0  0  0  0  0  0  0  0
   -1.7473  -10.3576   -7.7311 N   0  0  0  0  0  0  0  0  0  0  0  0
   -2.0920  -11.5299   -8.4105 C   0  0  0  0  0  0  0  0  0  0  0  0
   -1.4310  -12.3386   -9.4334 N   0  0  0  0  0  0  0  0  0  0  0  0
   -2.2101  -13.3415   -9.7153 C   0  0  0  0  0  0  0  0  0  0  0  0
   -1.9182  -14.3551  -10.6661 O   0  0  0  0  0  0  0  0  0  0  0  0
   -0.6978  -14.3182  -11.3911 C   0  0  0  0  0  0  0  0  0  0  0  0
    0.3396  -14.3707  -10.5402 C   0  0  0  0  0  0  0  0  0  0  0  0
    0.6951  -13.0246  -10.1181 O   0  0  0  0  0  0  0  0  0  0  0  0
    0.1778  -12.0721  -11.2130 C   0  0  0  0  0  0  0  0  0  0  0  0
    1.3483  -11.5771  -12.0368 C   0  0  0  0  0  0  0  0  0  0  0  0
    2.4848  -11.3486  -11.2167 O   0  0  0  0  0  0  0  0  0  0  0  0
    1.6079  -12.5314  -12.9724 C   0  0  0  0  0  0  0  0  0  0  0  0
    0.3755  -13.2087  -13.3457 O   0  0  0  0  0  0  0  0  0  0  0  0
   -0.5997  -13.0210  -12.1682 C   0  0  0  0  0  0  0  0  0  0  0  0
   -3.3764  -13.2773   -8.9469 N   0  0  0  0  0  0  0  0  0  0  0  0
   -3.3174  -12.1624   -8.1359 C   0  0  0  0  0  0  0  0  0  0  0  0
   -4.1784  -11.6174   -7.1902 C   0  0  0  0  0  0  0  0  0  0  0  0
   -3.8272  -10.4653   -6.5232 C   0  0  0  0  0  0  0  0  0  0  0  0
   -4.9281   -9.7808   -5.3034 Cl  0  0  0  0  0  0  0  0  0  0  0  0
   -2.1548   -8.2867   -4.8528 C   0  0  0  0  0  0  0  0  0  0  0  0
   -1.6608   -7.1122   -4.3385 C   0  0  0  0  0  0  0  0  0  0  0  0
    0.2342   -4.8545   -3.6160 C   0  0  0  0  0  0  0  0  0  0  0  0
    0.7429   -3.6835   -3.1081 C   0  0  0  0  0  0  0  0  0  0  0  0
    0.6247   -0.2134    0.9056 H   0  0  0  0  0  0  0  0  0  0  0  0
    0.6247    0.9040   -0.4377 H   0  0  0  0  0  0  0  0  0  0  0  0
    2.0513   -0.0425   -0.0886 H   0  0  0  0  0  0  0  0  0  0  0  0
    3.0441   -0.3692   -2.2121 H   0  0  0  0  0  0  0  0  0  0  0  0
    2.6144   -0.2668   -4.5513 H   0  0  0  0  0  0  0  0  0  0  0  0
    4.0411   -1.2133   -4.2022 H   0  0  0  0  0  0  0  0  0  0  0  0
    2.5343   -2.0120   -4.5825 H   0  0  0  0  0  0  0  0  0  0  0  0
   -1.3517   -1.5109   -4.5333 H   0  0  0  0  0  0  0  0  0  0  0  0
   -2.4846   -3.7116   -4.9666 H   0  0  0  0  0  0  0  0  0  0  0  0
   -0.9036   -5.5418   -7.1844 H   0  0  0  0  0  0  0  0  0  0  0  0
   -2.2849   -7.4794   -7.9919 H   0  0  0  0  0  0  0  0  0  0  0  0
   -0.6744  -15.1542  -12.0585 H   0  0  0  0  0  0  0  0  0  0  0  0
    0.0666  -14.9507   -9.6834 H   0  0  0  0  0  0  0  0  0  0  0  0
    1.1774  -14.8236  -11.0279 H   0  0  0  0  0  0  0  0  0  0  0  0
   -0.3757  -11.2519  -10.8059 H   0  0  0  0  0  0  0  0  0  0  0  0
    1.0971  -10.6530  -12.5142 H   0  0  0  0  0  0  0  0  0  0  0  0
    2.7411  -12.1992  -10.7577 H   0  0  0  0  0  0  0  0  0  0  0  0
    2.2927  -13.2459  -12.5656 H   0  0  0  0  0  0  0  0  0  0  0  0
    2.0362  -12.0717  -13.8385 H   0  0  0  0  0  0  0  0  0  0  0  0
   -1.5631  -12.6895  -12.4952 H   0  0  0  0  0  0  0  0  0  0  0  0
   -4.1459  -13.9460   -8.9803 H   0  0  0  0  0  0  0  0  0  0  0  0
   -5.1136  -12.0932   -6.9808 H   0  0  0  0  0  0  0  0  0  0  0  0
   -2.4752   -9.0605   -4.1868 H   0  0  0  0  0  0  0  0  0  0  0  0
   -1.5331   -7.0087   -3.2812 H   0  0  0  0  0  0  0  0  0  0  0  0
    0.7069   -5.7834   -3.3740 H   0  0  0  0  0  0  0  0  0  0  0  0
    1.6468   -3.7022   -2.5359 H   0  0  0  0  0  0  0  0  0  0  0  0
  1  2  1  0  0  0  0
  1 39  1  0  0  0  0
  1 40  1  0  0  0  0
  1 41  1  0  0  0  0
  2  3  2  0  0  0  0
  3  4  2  0  0  0  0
  3  5  1  0  0  0  0
  3  7  1  0  0  0  0
  5  6  1  0  0  0  0
  5 42  1  0  0  0  0
  6 43  1  0  0  0  0
  6 44  1  0  0  0  0
  6 45  1  0  0  0  0
  7  8  1  0  0  0  0
  7 38  2  0  0  0  0
  8  9  2  0  0  0  0
  8 46  1  0  0  0  0
  9 10  1  0  0  0  0
  9 47  1  0  0  0  0
 10 11  1  0  0  0  0
 10 37  2  0  0  0  0
 11 12  1  0  0  0  0
 11 36  2  0  0  0  0
 12 13  2  0  0  0  0
 12 48  1  0  0  0  0
 13 14  1  0  0  0  0
 13 49  1  0  0  0  0
 14 15  1  0  0  0  0
 14 35  2  0  0  0  0
 15 16  1  0  0  0  0
 15 33  2  0  0  0  0
 16 17  2  0  0  0  0
 17 18  1  0  0  0  0
 17 31  1  0  0  0  0
 18 19  2  0  0  0  0
 19 20  1  0  0  0  0
 19 30  1  0  0  0  0
 20 21  1  0  0  0  0
 21 22  1  0  0  0  0
 21 29  1  0  0  0  0
 21 50  1  0  0  0  0
 22 23  1  0  0  0  0
 22 51  1  0  0  0  0
 22 52  1  0  0  0  0
 23 24  1  0  0  0  0
 24 25  1  0  0  0  0
 24 29  1  0  0  0  0
 24 53  1  0  0  0  0
 25 26  1  0  0  0  0
 25 27  1  0  0  0  0
 25 54  1  0  0  0  0
 26 55  1  0  0  0  0
 27 28  1  0  0  0  0
 27 56  1  0  0  0  0
 27 57  1  0  0  0  0
 28 29  1  0  0  0  0
 29 58  1  0  0  0  0
 30 31  1  0  0  0  0
 30 59  1  0  0  0  0
 31 32  2  0  0  0  0
 32 33  1  0  0  0  0
 32 60  1  0  0  0  0
 33 34  1  0  0  0  0
 35 36  1  0  0  0  0
 35 61  1  0  0  0  0
 36 62  1  0  0  0  0
 37 38  1  0  0  0  0
 37 63  1  0  0  0  0
 38 64  1  0  0  0  0
M  END
