REMARK  Name = 
REMARK  11 active torsions:
REMARK  status: ('A' for Active; 'I' for Inactive)
REMARK    1  A    between atoms: S_2  and  C_4
REMARK    2  A    between atoms: S_2  and  C_40
REMARK    3  A    between atoms: C_4  and  C_5
REMARK    4  A    between atoms: C_5  and  O_6
REMARK    5  A    between atoms: O_6  and  C_7
REMARK    6  A    between atoms: C_7  and  C_8
REMARK    7  A    between atoms: C_11  and  C_12
REMARK    8  A    between atoms: N_20  and  C_21
REMARK    9  A    between atoms: C_24  and  O_25
REMARK   10  A    between atoms: O_25  and  C_26
REMARK   11  A    between atoms: C_26  and  C_27
REMARK                            x       y       z     vdW  Elec       q    Type
REMARK                         _______ _______ _______ _____ _____    ______ ____
ROOT
ATOM      1  C   UNL     1      -2.154   1.815  -2.517  0.00  0.00    +0.000 A 
ATOM      2  C   UNL     1      -3.099   1.742  -1.475  0.00  0.00    +0.000 A 
ATOM      3  C   UNL     1      -4.206   2.544  -1.478  0.00  0.00    +0.000 A 
ATOM      4  C   UNL     1      -4.403   3.480  -2.517  0.00  0.00    +0.000 A 
ATOM      5  N   UNL     1      -5.502   4.302  -2.495  0.00  0.00    +0.000 NA
ATOM      6  C   UNL     1      -5.622   5.139  -3.488  0.00  0.00    +0.000 A 
ATOM      7  N   UNL     1      -4.776   5.275  -4.556  0.00  0.00    +0.000 NA
ATOM      8  C   UNL     1      -3.730   4.486  -4.597  0.00  0.00    +0.000 A 
ATOM      9  N   UNL     1      -2.809   4.580  -5.739  0.00  0.00    +0.000 N 
ATOM     10  C   UNL     1      -3.459   3.541  -3.567  0.00  0.00    +0.000 A 
ATOM     11  C   UNL     1      -2.330   2.691  -3.549  0.00  0.00    +0.000 A 
ATOM     12  H   UNL     1      -1.991   3.973  -5.786  0.00  0.00    +0.000 HD
ENDROOT
BRANCH   9  13
ATOM     13  C   UNL     1      -3.068   5.549  -6.814  0.00  0.00    +0.000 A 
ATOM     14  C   UNL     1      -3.119   6.893  -6.482  0.00  0.00    +0.000 A 
ATOM     15  C   UNL     1      -3.194   7.861  -7.478  0.00  0.00    +0.000 A 
ATOM     16  C   UNL     1      -3.242   7.479  -8.814  0.00  0.00    +0.000 A 
ATOM     17  C   UNL     1      -3.222   6.129  -9.124  0.00  0.00    +0.000 A 
ATOM     18 CL   UNL     1      -3.299   5.662 -10.796  0.00  0.00    +0.000 Cl
ATOM     19  C   UNL     1      -3.106   5.149  -8.150  0.00  0.00    +0.000 A 
BRANCH  16  20
ATOM     20  O   UNL     1      -3.309   8.455  -9.843  0.00  0.00    +0.000 OA
BRANCH  20  21
ATOM     21  C   UNL     1      -3.357   8.051 -11.203  0.00  0.00    +0.000 C 
BRANCH  21  22
ATOM     22  C   UNL     1      -2.109   7.251 -11.538  0.00  0.00    +0.000 A 
ATOM     23  C   UNL     1      -0.945   7.888 -11.856  0.00  0.00    +0.000 A 
ATOM     24  C   UNL     1       0.169   7.126 -12.175  0.00  0.00    +0.000 A 
ATOM     25  C   UNL     1       0.102   5.742 -12.184  0.00  0.00    +0.000 A 
ATOM     26  C   UNL     1      -1.065   5.164 -11.848  0.00  0.00    +0.000 A 
ATOM     27  F   UNL     1      -1.136   3.809 -11.852  0.00  0.00    +0.000 F 
ATOM     28  C   UNL     1      -2.176   5.867 -11.525  0.00  0.00    +0.000 A 
ENDBRANCH  21  22
ENDBRANCH  20  21
ENDBRANCH  16  20
ENDBRANCH   9  13
BRANCH   1  32
ATOM     29  C   UNL     1       1.123   0.223  -2.471  0.00  0.00    +0.000 A 
ATOM     30  C   UNL     1       0.380  -0.892  -2.472  0.00  0.00    +0.000 A 
ATOM     31  C   UNL     1      -0.964  -0.443  -2.487  0.00  0.00    +0.000 A 
ATOM     32  C   UNL     1      -0.931   0.913  -2.491  0.00  0.00    +0.000 A 
ATOM     33  O   UNL     1       0.371   1.351  -2.469  0.00  0.00    +0.000 OA
BRANCH  29  34
ATOM     34  C   UNL     1       2.643   0.223  -2.471  0.00  0.00    +0.000 C 
BRANCH  34  35
ATOM     35  O   UNL     1       3.117  -1.057  -2.862  0.00  0.00    +0.000 OA
BRANCH  35  36
ATOM     36  C   UNL     1       2.643  -2.037  -1.950  0.00  0.00    +0.000 C 
BRANCH  36  37
ATOM     37  C   UNL     1       3.150  -1.714  -0.553  0.00  0.00    +0.000 C 
BRANCH  37  39
ATOM     38  O   UNL     1       1.016  -0.083  -0.054  0.00  0.00    +0.000 OA
ATOM     39  S   UNL     1       2.547  -0.083  -0.054  0.00  0.00    +0.000 S 
ATOM     40  O   UNL     1       3.057   0.242   1.352  0.00  0.00    +0.000 OA
BRANCH  39  41
ATOM     41  C   UNL     1       3.150   1.166  -1.217  0.00  0.00    +0.000 A 
ATOM     42  C   UNL     1       3.985   0.880  -2.285  0.00  0.00    +0.000 A 
ATOM     43  C   UNL     1       4.432   2.025  -2.986  0.00  0.00    +0.000 A 
ATOM     44  C   UNL     1       3.868   3.217  -2.910  0.00  0.00    +0.000 A 
ATOM     45  C   UNL     1       3.001   3.415  -1.872  0.00  0.00    +0.000 A 
ATOM     46  C   UNL     1       2.618   2.372  -1.063  0.00  0.00    +0.000 A 
ENDBRANCH  39  41
ENDBRANCH  37  39
ENDBRANCH  36  37
ENDBRANCH  35  36
ENDBRANCH  34  35
ENDBRANCH  29  34
ENDBRANCH   1  32
TORSDOF 11
