
 OpenBabel03132514253D

 54 57  0  0  0  0  0  0  0  0999 V2000
    0.9428    0.0719   -0.0395 C   0  0  0  0  0  0  0  0  0  0  0  0
    0.4361   -0.6748   -1.2626 C   0  0  0  0  0  0  0  0  0  0  0  0
   -0.2946   -1.7050   -1.1207 O   0  0  0  0  0  0  0  0  0  0  0  0
    0.7912   -0.2055   -2.6097 N   0  0  0  0  0  0  0  0  0  0  0  0
    1.6364    0.9861   -2.7738 C   0  0  0  0  0  0  0  0  0  0  0  0
    1.3132    1.9681   -3.7039 C   0  0  0  0  0  0  0  0  0  0  0  0
    1.8356    3.2590   -3.4664 C   0  0  0  0  0  0  0  0  0  0  0  0
    3.1066    3.3158   -2.8971 C   0  0  0  0  0  0  0  0  0  0  0  0
    3.5284    2.2785   -2.2053 C   0  0  0  0  0  0  0  0  0  0  0  0
    4.9114    2.3078   -1.5754 C   0  0  0  0  0  0  0  0  0  0  0  0
    6.0978    2.3329   -1.0351 C   0  0  0  0  0  0  0  0  0  0  0  0
    7.4808    2.3621   -0.4052 C   0  0  0  0  0  0  0  0  0  0  0  0
    8.0929    3.5661   -0.1193 C   0  0  0  0  0  0  0  0  0  0  0  0
    9.2972    3.5994    0.4292 N   0  0  0  0  0  0  0  0  0  0  0  0
    9.9535    2.4907    0.7280 C   0  0  0  0  0  0  0  0  0  0  0  0
    9.4014    1.2510    0.4694 N   0  0  0  0  0  0  0  0  0  0  0  0
    8.1432    1.1792   -0.1105 C   0  0  0  0  0  0  0  0  0  0  0  0
    7.5255   -0.1215   -0.4062 N   0  0  0  0  0  0  0  0  0  0  0  0
    8.2418   -1.3649   -0.0873 C   0  0  0  0  0  0  0  0  0  0  0  0
    8.6105   -1.6696    1.1581 C   0  0  0  0  0  0  0  0  0  0  0  0
    9.2920   -2.8965    1.3915 C   0  0  0  0  0  0  0  0  0  0  0  0
    9.8226   -3.6078    0.3029 C   0  0  0  0  0  0  0  0  0  0  0  0
   10.7494   -4.6601    0.5266 O   0  0  0  0  0  0  0  0  0  0  0  0
   11.1397   -4.9931    1.8506 C   0  0  0  0  0  0  0  0  0  0  0  0
   11.7900   -3.7856    2.5059 C   0  0  0  0  0  0  0  0  0  0  0  0
   11.2135   -2.6043    2.2778 C   0  0  0  0  0  0  0  0  0  0  0  0
   11.7262   -1.4518    2.9360 C   0  0  0  0  0  0  0  0  0  0  0  0
   12.9824   -1.5167    3.5606 C   0  0  0  0  0  0  0  0  0  0  0  0
   13.5436   -2.6702    3.7751 C   0  0  0  0  0  0  0  0  0  0  0  0
   14.7378   -2.7298    4.3576 F   0  0  0  0  0  0  0  0  0  0  0  0
   12.8917   -3.8504    3.3934 C   0  0  0  0  0  0  0  0  0  0  0  0
    9.4652   -3.3031   -0.9099 C   0  0  0  0  0  0  0  0  0  0  0  0
   10.1489   -4.1968   -2.2891 Cl  0  0  0  0  0  0  0  0  0  0  0  0
    8.5427   -2.2721   -1.1322 C   0  0  0  0  0  0  0  0  0  0  0  0
    2.7183    1.1492   -2.0430 N   0  0  0  0  0  0  0  0  0  0  0  0
    0.5861   -0.4110    0.8463 H   0  0  0  0  0  0  0  0  0  0  0  0
    0.5861    1.0804   -0.0642 H   0  0  0  0  0  0  0  0  0  0  0  0
    2.0128    0.0719   -0.0395 H   0  0  0  0  0  0  0  0  0  0  0  0
    0.4512   -0.7066   -3.4305 H   0  0  0  0  0  0  0  0  0  0  0  0
    0.7005    1.7569   -4.5553 H   0  0  0  0  0  0  0  0  0  0  0  0
    1.2861    4.1442   -3.7101 H   0  0  0  0  0  0  0  0  0  0  0  0
    3.7240    4.1811   -3.0194 H   0  0  0  0  0  0  0  0  0  0  0  0
    7.5882    4.4825   -0.3436 H   0  0  0  0  0  0  0  0  0  0  0  0
   10.9234    2.5547    1.1752 H   0  0  0  0  0  0  0  0  0  0  0  0
    6.5998   -0.1613   -0.8328 H   0  0  0  0  0  0  0  0  0  0  0  0
    8.3973   -1.0028    1.9674 H   0  0  0  0  0  0  0  0  0  0  0  0
    9.3994   -3.2736    2.3871 H   0  0  0  0  0  0  0  0  0  0  0  0
   10.2778   -5.2837    2.4142 H   0  0  0  0  0  0  0  0  0  0  0  0
   11.8380   -5.8034    1.8236 H   0  0  0  0  0  0  0  0  0  0  0  0
   10.3801   -2.5250    1.6115 H   0  0  0  0  0  0  0  0  0  0  0  0
   11.1599   -0.5441    2.9549 H   0  0  0  0  0  0  0  0  0  0  0  0
   13.4779   -0.6169    3.8601 H   0  0  0  0  0  0  0  0  0  0  0  0
   13.2243   -4.7949    3.7703 H   0  0  0  0  0  0  0  0  0  0  0  0
    8.0683   -2.1708   -2.0860 H   0  0  0  0  0  0  0  0  0  0  0  0
  1  2  1  0  0  0  0
  1 36  1  0  0  0  0
  1 37  1  0  0  0  0
  1 38  1  0  0  0  0
  2  3  2  0  0  0  0
  2  4  1  0  0  0  0
  4  5  1  0  0  0  0
  4 39  1  0  0  0  0
  5  6  1  0  0  0  0
  5 35  2  0  0  0  0
  6  7  2  0  0  0  0
  6 40  1  0  0  0  0
  7  8  1  0  0  0  0
  7 41  1  0  0  0  0
  8  9  2  0  0  0  0
  8 42  1  0  0  0  0
  9 10  1  0  0  0  0
  9 35  1  0  0  0  0
 10 11  3  0  0  0  0
 11 12  1  0  0  0  0
 12 13  1  0  0  0  0
 12 17  2  0  0  0  0
 13 14  2  0  0  0  0
 13 43  1  0  0  0  0
 14 15  1  0  0  0  0
 15 16  2  0  0  0  0
 15 44  1  0  0  0  0
 16 17  1  0  0  0  0
 17 18  1  0  0  0  0
 18 19  1  0  0  0  0
 18 45  1  0  0  0  0
 19 20  1  0  0  0  0
 19 34  2  0  0  0  0
 20 21  2  0  0  0  0
 20 46  1  0  0  0  0
 21 22  1  0  0  0  0
 21 47  1  0  0  0  0
 22 23  1  0  0  0  0
 22 32  2  0  0  0  0
 23 24  1  0  0  0  0
 24 25  1  0  0  0  0
 24 48  1  0  0  0  0
 24 49  1  0  0  0  0
 25 26  1  0  0  0  0
 25 31  2  0  0  0  0
 26 27  2  0  0  0  0
 26 50  1  0  0  0  0
 27 28  1  0  0  0  0
 27 51  1  0  0  0  0
 28 29  2  0  0  0  0
 28 52  1  0  0  0  0
 29 30  1  0  0  0  0
 29 31  1  0  0  0  0
 31 53  1  0  0  0  0
 32 33  1  0  0  0  0
 32 34  1  0  0  0  0
 34 54  1  0  0  0  0
M  END
