
 OpenBabel03132512093D

 48 51  0  0  0  0  0  0  0  0999 V2000
    0.9866   -0.0293   -0.0947 C   0  0  0  0  0  0  0  0  0  0  0  0
    0.4799    0.8280    1.0537 C   0  0  0  0  0  0  0  0  0  0  0  0
    1.6853    1.1703    1.9140 C   0  0  0  0  0  0  0  0  0  0  0  0
   -0.8456   -0.0580    1.9350 O   0  0  0  0  0  0  0  0  0  0  0  0
   -1.6853   -0.8387    0.9450 C   0  0  0  0  0  0  0  0  0  0  0  0
   -2.5443   -0.0225    0.0067 C   0  0  0  0  0  0  0  0  0  0  0  0
   -3.8099    0.0612    0.0867 O   0  0  0  0  0  0  0  0  0  0  0  0
   -1.6999    0.6906   -1.0513 N   0  0  0  0  0  0  0  0  0  0  0  0
   -1.3395    2.0710   -0.5421 C   0  0  0  0  0  0  0  0  0  0  0  0
   -2.0069    3.1711   -1.0620 C   0  0  0  0  0  0  0  0  0  0  0  0
   -1.7149    4.4374   -0.5998 C   0  0  0  0  0  0  0  0  0  0  0  0
   -2.4330    5.5986   -1.1444 N   0  0  0  0  0  0  0  0  0  0  0  0
   -3.4597    5.4088   -2.1791 C   0  0  0  0  0  0  0  0  0  0  0  0
   -3.3281    6.0172   -3.4114 N   0  0  0  0  0  0  0  0  0  0  0  0
   -4.2528    5.8606   -4.3455 C   0  0  0  0  0  0  0  0  0  0  0  0
   -4.0817    6.5295   -5.6433 N   0  0  0  0  0  0  0  0  0  0  0  0
   -2.8946    7.3603   -5.8911 C   0  0  0  0  0  0  0  0  0  0  0  0
   -2.1182    6.7957   -7.0696 C   0  0  0  0  0  0  0  0  0  0  0  0
   -2.8923    6.7949   -8.1511 F   0  0  0  0  0  0  0  0  0  0  0  0
   -1.0441    7.5474   -7.2938 F   0  0  0  0  0  0  0  0  0  0  0  0
   -1.7387    5.5509   -6.7951 F   0  0  0  0  0  0  0  0  0  0  0  0
   -5.3268    5.1169   -4.1396 C   0  0  0  0  0  0  0  0  0  0  0  0
   -6.2387    4.9801   -5.1195 O   0  0  0  0  0  0  0  0  0  0  0  0
   -7.3342    4.2254   -4.9184 C   0  0  0  0  0  0  0  0  0  0  0  0
   -6.6960    3.6709   -2.7140 C   0  0  0  0  0  0  0  0  0  0  0  0
   -5.5235    4.4788   -2.9302 C   0  0  0  0  0  0  0  0  0  0  0  0
   -4.5772    4.6262   -1.9266 N   0  0  0  0  0  0  0  0  0  0  0  0
   -0.7388    4.6217    0.3845 C   0  0  0  0  0  0  0  0  0  0  0  0
   -0.0641    3.5127    0.9044 C   0  0  0  0  0  0  0  0  0  0  0  0
   -0.3757    2.2512    0.4257 C   0  0  0  0  0  0  0  0  0  0  0  0
    0.6299    0.3690   -1.0215 H   0  0  0  0  0  0  0  0  0  0  0  0
    0.6299   -1.0311    0.0238 H   0  0  0  0  0  0  0  0  0  0  0  0
    2.0566   -0.0293   -0.0947 H   0  0  0  0  0  0  0  0  0  0  0  0
    2.1290    0.2685    2.2812 H   0  0  0  0  0  0  0  0  0  0  0  0
    2.4014    1.7070    1.3274 H   0  0  0  0  0  0  0  0  0  0  0  0
    1.3741    1.7763    2.7391 H   0  0  0  0  0  0  0  0  0  0  0  0
   -0.9856   -1.3515    0.3186 H   0  0  0  0  0  0  0  0  0  0  0  0
   -2.3327   -1.4827    1.5028 H   0  0  0  0  0  0  0  0  0  0  0  0
   -1.4246    0.3001   -1.9525 H   0  0  0  0  0  0  0  0  0  0  0  0
   -2.7484    3.0369   -1.8216 H   0  0  0  0  0  0  0  0  0  0  0  0
   -2.2189    6.5361   -0.8043 H   0  0  0  0  0  0  0  0  0  0  0  0
   -4.7868    6.4172   -6.3718 H   0  0  0  0  0  0  0  0  0  0  0  0
   -3.1999    8.3617   -6.1120 H   0  0  0  0  0  0  0  0  0  0  0  0
   -2.2718    7.3609   -5.0211 H   0  0  0  0  0  0  0  0  0  0  0  0
   -8.0593    4.1166   -5.6977 H   0  0  0  0  0  0  0  0  0  0  0  0
   -6.8416    3.1797   -1.7746 H   0  0  0  0  0  0  0  0  0  0  0  0
   -0.5096    5.6054    0.7376 H   0  0  0  0  0  0  0  0  0  0  0  0
    0.6821    3.6370    1.6611 H   0  0  0  0  0  0  0  0  0  0  0  0
  1  2  1  0  0  0  0
  1 31  1  0  0  0  0
  1 32  1  0  0  0  0
  1 33  1  0  0  0  0
  2  3  1  0  0  0  0
  2  4  1  0  0  0  0
  2 30  1  0  0  0  0
  3 34  1  0  0  0  0
  3 35  1  0  0  0  0
  3 36  1  0  0  0  0
  4  5  1  0  0  0  0
  5  6  1  0  0  0  0
  5 37  1  0  0  0  0
  5 38  1  0  0  0  0
  6  7  2  0  0  0  0
  6  8  1  0  0  0  0
  8  9  1  0  0  0  0
  8 39  1  0  0  0  0
  9 10  1  0  0  0  0
  9 30  2  0  0  0  0
 10 11  2  0  0  0  0
 10 40  1  0  0  0  0
 11 12  1  0  0  0  0
 11 28  1  0  0  0  0
 12 13  1  0  0  0  0
 12 41  1  0  0  0  0
 13 14  1  0  0  0  0
 13 27  2  0  0  0  0
 14 15  2  0  0  0  0
 15 16  1  0  0  0  0
 15 22  1  0  0  0  0
 16 17  1  0  0  0  0
 16 42  1  0  0  0  0
 17 18  1  0  0  0  0
 17 43  1  0  0  0  0
 17 44  1  0  0  0  0
 18 19  1  0  0  0  0
 18 20  1  0  0  0  0
 18 21  1  0  0  0  0
 22 23  1  0  0  0  0
 22 26  2  0  0  0  0
 23 24  1  0  0  0  0
 24 25  2  0  0  0  0
 24 45  1  0  0  0  0
 25 26  1  0  0  0  0
 25 46  1  0  0  0  0
 26 27  1  0  0  0  0
 28 29  2  0  0  0  0
 28 47  1  0  0  0  0
 29 30  1  0  0  0  0
 29 48  1  0  0  0  0
M  END
