
 OpenBabel03132512093D

 45 48  0  0  0  0  0  0  0  0999 V2000
    0.9763    0.0571    0.0786 C   0  0  0  0  0  0  0  0  0  0  0  0
    0.5030    1.3623    0.3766 O   0  0  0  0  0  0  0  0  0  0  0  0
    0.8460    1.9777    1.6095 C   0  0  0  0  0  0  0  0  0  0  0  0
    2.1647    1.8839    2.0086 C   0  0  0  0  0  0  0  0  0  0  0  0
    2.5888    2.5741    3.1468 C   0  0  0  0  0  0  0  0  0  0  0  0
    1.6502    3.3468    3.8188 C   0  0  0  0  0  0  0  0  0  0  0  0
    2.0408    4.1191    5.0684 C   0  0  0  0  0  0  0  0  0  0  0  0
    1.5261    3.7345    6.3014 C   0  0  0  0  0  0  0  0  0  0  0  0
    1.9839    4.3454    7.4602 C   0  0  0  0  0  0  0  0  0  0  0  0
    2.9896    5.3031    7.4312 C   0  0  0  0  0  0  0  0  0  0  0  0
    3.5432    5.6774    6.2136 C   0  0  0  0  0  0  0  0  0  0  0  0
    3.0192    5.0853    5.0636 C   0  0  0  0  0  0  0  0  0  0  0  0
    3.6366    5.6445    3.9394 N   0  0  0  0  0  0  0  0  0  0  0  0
    4.5537    6.5778    4.2947 C   0  0  0  0  0  0  0  0  0  0  0  0
    5.2411    7.2255    3.5033 O   0  0  0  0  0  0  0  0  0  0  0  0
    4.5629    6.6374    5.7875 C   0  0  0  0  0  0  0  0  0  0  0  0
    5.4317    7.4243    6.4460 C   0  0  0  0  0  0  0  0  0  0  0  0
    5.4676    7.4117    7.9655 C   0  0  0  0  0  0  0  0  0  0  0  0
    5.7340    6.3242    8.7621 N   0  0  0  0  0  0  0  0  0  0  0  0
    5.6694    6.6711   10.0791 C   0  0  0  0  0  0  0  0  0  0  0  0
    5.8838    5.6677   11.1592 C   0  0  0  0  0  0  0  0  0  0  0  0
    5.3782    8.0115   10.1371 C   0  0  0  0  0  0  0  0  0  0  0  0
    5.2376    8.4846    8.7911 C   0  0  0  0  0  0  0  0  0  0  0  0
    4.9401    9.9035    8.3766 C   0  0  0  0  0  0  0  0  0  0  0  0
    0.3620    3.4038    3.3383 C   0  0  0  0  0  0  0  0  0  0  0  0
   -0.0546    2.7288    2.2625 N   0  0  0  0  0  0  0  0  0  0  0  0
    0.6196   -0.2402   -0.8854 H   0  0  0  0  0  0  0  0  0  0  0  0
    0.6196   -0.6291    0.8180 H   0  0  0  0  0  0  0  0  0  0  0  0
    2.0463    0.0571    0.0786 H   0  0  0  0  0  0  0  0  0  0  0  0
    2.8560    1.2874    1.4507 H   0  0  0  0  0  0  0  0  0  0  0  0
    3.6007    2.5099    3.4888 H   0  0  0  0  0  0  0  0  0  0  0  0
    0.7794    2.9701    6.3566 H   0  0  0  0  0  0  0  0  0  0  0  0
    1.5514    4.0717    8.3998 H   0  0  0  0  0  0  0  0  0  0  0  0
    3.3352    5.7493    8.3402 H   0  0  0  0  0  0  0  0  0  0  0  0
    3.4241    5.3837    2.9765 H   0  0  0  0  0  0  0  0  0  0  0  0
    6.0978    8.0595    5.9003 H   0  0  0  0  0  0  0  0  0  0  0  0
    5.9497    5.3891    8.4167 H   0  0  0  0  0  0  0  0  0  0  0  0
    6.7103    5.9700   11.7679 H   0  0  0  0  0  0  0  0  0  0  0  0
    5.0028    5.5992   11.7624 H   0  0  0  0  0  0  0  0  0  0  0  0
    6.0925    4.7132   10.7229 H   0  0  0  0  0  0  0  0  0  0  0  0
    5.2747    8.5973   11.0265 H   0  0  0  0  0  0  0  0  0  0  0  0
    4.0023   10.2073    8.7926 H   0  0  0  0  0  0  0  0  0  0  0  0
    5.7148   10.5493    8.7340 H   0  0  0  0  0  0  0  0  0  0  0  0
    4.8922    9.9606    7.3092 H   0  0  0  0  0  0  0  0  0  0  0  0
   -0.3438    4.0214    3.8534 H   0  0  0  0  0  0  0  0  0  0  0  0
  1  2  1  0  0  0  0
  1 27  1  0  0  0  0
  1 28  1  0  0  0  0
  1 29  1  0  0  0  0
  2  3  1  0  0  0  0
  3  4  1  0  0  0  0
  3 26  2  0  0  0  0
  4  5  2  0  0  0  0
  4 30  1  0  0  0  0
  5  6  1  0  0  0  0
  5 31  1  0  0  0  0
  6  7  1  0  0  0  0
  6 25  2  0  0  0  0
  7  8  1  0  0  0  0
  7 12  2  0  0  0  0
  8  9  2  0  0  0  0
  8 32  1  0  0  0  0
  9 10  1  0  0  0  0
  9 33  1  0  0  0  0
 10 11  2  0  0  0  0
 10 34  1  0  0  0  0
 11 12  1  0  0  0  0
 11 16  1  0  0  0  0
 12 13  1  0  0  0  0
 13 14  1  0  0  0  0
 13 35  1  0  0  0  0
 14 15  2  0  0  0  0
 14 16  1  0  0  0  0
 16 17  2  0  0  0  0
 17 18  1  0  0  0  0
 17 36  1  0  0  0  0
 18 19  1  0  0  0  0
 18 23  2  0  0  0  0
 19 20  1  0  0  0  0
 19 37  1  0  0  0  0
 20 21  1  0  0  0  0
 20 22  2  0  0  0  0
 21 38  1  0  0  0  0
 21 39  1  0  0  0  0
 21 40  1  0  0  0  0
 22 23  1  0  0  0  0
 22 41  1  0  0  0  0
 23 24  1  0  0  0  0
 24 42  1  0  0  0  0
 24 43  1  0  0  0  0
 24 44  1  0  0  0  0
 25 26  1  0  0  0  0
 25 45  1  0  0  0  0
M  END
