
 OpenBabel03132514253D

 53 57  0  0  0  0  0  0  0  0999 V2000
   -0.7010    1.1260   -0.0040 C   0  0  0  0  0  0  0  0  0  0  0  0
    0.6770    1.2160    0.0070 C   0  0  0  0  0  0  0  0  0  0  0  0
    1.4420    0.0470   -0.0030 C   0  0  0  0  0  0  0  0  0  0  0  0
    2.9610    0.1005   -0.0114 C   0  0  0  0  0  0  0  0  0  0  0  0
    3.8541   -0.4265   -0.9942 C   0  0  0  0  0  0  0  0  0  0  0  0
    5.1770   -0.2233   -0.7511 N   0  0  0  0  0  0  0  0  0  0  0  0
    5.1426    0.4765    0.4458 N   0  0  0  0  0  0  0  0  0  0  0  0
    6.2206    0.9477    1.1294 C   0  0  0  0  0  0  0  0  0  0  0  0
    5.9809    1.6373    2.3187 C   0  0  0  0  0  0  0  0  0  0  0  0
    7.1385    2.2456    3.0936 C   0  0  0  0  0  0  0  0  0  0  0  0
    7.9748    3.1738    2.4955 C   0  0  0  0  0  0  0  0  0  0  0  0
    9.1827    3.3939    3.1988 C   0  0  0  0  0  0  0  0  0  0  0  0
    9.3849    3.0647    4.4616 C   0  0  0  0  0  0  0  0  0  0  0  0
   10.4781    3.5838    5.2044 O   0  0  0  0  0  0  0  0  0  0  0  0
   10.6593    3.2040    6.5606 C   0  0  0  0  0  0  0  0  0  0  0  0
    9.4388    3.6134    7.3688 C   0  0  0  0  0  0  0  0  0  0  0  0
    8.2463    2.9454    6.8279 N   0  0  0  0  0  0  0  0  0  0  0  0
    7.8791    1.7956    7.6745 C   0  0  0  0  0  0  0  0  0  0  0  0
    8.8334    0.6526    7.4104 C   0  0  0  0  0  0  0  0  0  0  0  0
    8.8232    0.2856    6.0309 O   0  0  0  0  0  0  0  0  0  0  0  0
    9.2152    1.3996    5.2284 C   0  0  0  0  0  0  0  0  0  0  0  0
    8.2569    2.5628    5.4015 C   0  0  0  0  0  0  0  0  0  0  0  0
    8.4849    2.1971    5.0154 C   0  0  0  0  0  0  0  0  0  0  0  0
    7.3463    1.8324    4.3383 C   0  0  0  0  0  0  0  0  0  0  0  0
    4.6202    1.7723    2.8146 C   0  0  0  0  0  0  0  0  0  0  0  0
    3.5747    1.3339    2.0861 N   0  0  0  0  0  0  0  0  0  0  0  0
    3.7932    0.6674    0.9252 C   0  0  0  0  0  0  0  0  0  0  0  0
    0.7650   -1.1660   -0.0050 C   0  0  0  0  0  0  0  0  0  0  0  0
   -0.6110   -1.1650    0.0090 C   0  0  0  0  0  0  0  0  0  0  0  0
   -1.3480   -0.0500   -0.0030 N   0  0  0  0  0  0  0  0  0  0  0  0
   -1.2752    2.0288   -0.0137 H   0  0  0  0  0  0  0  0  0  0  0  0
    1.1549    2.1732    0.0231 H   0  0  0  0  0  0  0  0  0  0  0  0
    3.5059   -0.9457   -1.8625 H   0  0  0  0  0  0  0  0  0  0  0  0
    7.2161    0.7950    0.7681 H   0  0  0  0  0  0  0  0  0  0  0  0
    7.7297    3.6784    1.5844 H   0  0  0  0  0  0  0  0  0  0  0  0
    9.9885    3.8596    2.6706 H   0  0  0  0  0  0  0  0  0  0  0  0
   10.7869    2.1433    6.6199 H   0  0  0  0  0  0  0  0  0  0  0  0
   11.5273    3.6902    6.9543 H   0  0  0  0  0  0  0  0  0  0  0  0
    9.5753    3.3272    8.3907 H   0  0  0  0  0  0  0  0  0  0  0  0
    9.3112    4.6741    7.3095 H   0  0  0  0  0  0  0  0  0  0  0  0
    6.8803    1.4876    7.4455 H   0  0  0  0  0  0  0  0  0  0  0  0
    7.9367    2.0780    8.7049 H   0  0  0  0  0  0  0  0  0  0  0  0
    9.8221    0.9669    7.6721 H   0  0  0  0  0  0  0  0  0  0  0  0
    8.5400   -0.1913    7.9991 H   0  0  0  0  0  0  0  0  0  0  0  0
    9.2025    1.0993    4.2015 H   0  0  0  0  0  0  0  0  0  0  0  0
   10.1973    1.7102    5.5179 H   0  0  0  0  0  0  0  0  0  0  0  0
    7.2736    2.2807    5.0877 H   0  0  0  0  0  0  0  0  0  0  0  0
    8.5818    3.3910    4.8070 H   0  0  0  0  0  0  0  0  0  0  0  0
    8.6699    1.7964    5.9901 H   0  0  0  0  0  0  0  0  0  0  0  0
    6.6205    1.2098    4.8183 H   0  0  0  0  0  0  0  0  0  0  0  0
    4.4474    2.2249    3.7686 H   0  0  0  0  0  0  0  0  0  0  0  0
    1.3063   -2.0889   -0.0173 H   0  0  0  0  0  0  0  0  0  0  0  0
   -1.1180   -2.1070    0.0306 H   0  0  0  0  0  0  0  0  0  0  0  0
  1  2  1  0  0  0  0
  1 30  2  0  0  0  0
  1 31  1  0  0  0  0
  2  3  2  0  0  0  0
  2 32  1  0  0  0  0
  3  4  1  0  0  0  0
  3 28  1  0  0  0  0
  4  5  1  0  0  0  0
  4 27  2  0  0  0  0
  5  6  2  0  0  0  0
  5 33  1  0  0  0  0
  6  7  1  0  0  0  0
  7  8  1  0  0  0  0
  7 27  1  0  0  0  0
  8  9  2  0  0  0  0
  8 34  1  0  0  0  0
  9 10  1  0  0  0  0
  9 25  1  0  0  0  0
 10 11  1  0  0  0  0
 10 24  2  0  0  0  0
 11 12  2  0  0  0  0
 11 35  1  0  0  0  0
 12 13  1  0  0  0  0
 12 36  1  0  0  0  0
 13 14  1  0  0  0  0
 13 23  2  0  0  0  0
 14 15  1  0  0  0  0
 15 16  1  0  0  0  0
 15 37  1  0  0  0  0
 15 38  1  0  0  0  0
 16 17  1  0  0  0  0
 16 39  1  0  0  0  0
 16 40  1  0  0  0  0
 17 18  1  0  0  0  0
 17 22  1  0  0  0  0
 18 19  1  0  0  0  0
 18 41  1  0  0  0  0
 18 42  1  0  0  0  0
 19 20  1  0  0  0  0
 19 43  1  0  0  0  0
 19 44  1  0  0  0  0
 20 21  1  0  0  0  0
 21 22  1  0  0  0  0
 21 45  1  0  0  0  0
 21 46  1  0  0  0  0
 22 47  1  0  0  0  0
 22 48  1  0  0  0  0
 23 24  1  0  0  0  0
 23 49  1  0  0  0  0
 24 50  1  0  0  0  0
 25 26  2  0  0  0  0
 25 51  1  0  0  0  0
 26 27  1  0  0  0  0
 28 29  2  0  0  0  0
 28 52  1  0  0  0  0
 29 30  1  0  0  0  0
 29 53  1  0  0  0  0
M  END
