
 OpenBabel03132512093D

 55 59  0  0  0  0  0  0  0  0999 V2000
    1.0387   -0.0875    0.0291 C   0  0  0  0  0  0  0  0  0  0  0  0
    0.5320   -1.2228   -0.8454 C   0  0  0  0  0  0  0  0  0  0  0  0
    1.0387   -2.5478   -0.2995 C   0  0  0  0  0  0  0  0  0  0  0  0
    0.5487   -2.7313    1.0743 N   0  0  0  0  0  0  0  0  0  0  0  0
   -0.2964   -3.8877    1.4049 C   0  0  0  0  0  0  0  0  0  0  0  0
   -0.7201   -4.0463    2.5926 O   0  0  0  0  0  0  0  0  0  0  0  0
   -0.6636   -4.8938    0.3263 C   0  0  0  0  0  0  0  0  0  0  0  0
   -1.8588   -5.5611    0.2650 C   0  0  0  0  0  0  0  0  0  0  0  0
   -1.7832   -6.5362   -0.6809 N   0  0  0  0  0  0  0  0  0  0  0  0
   -0.5463   -6.5346   -1.2904 C   0  0  0  0  0  0  0  0  0  0  0  0
    0.0068   -7.2652   -2.2570 N   0  0  0  0  0  0  0  0  0  0  0  0
    1.2466   -7.0273   -2.6600 C   0  0  0  0  0  0  0  0  0  0  0  0
    2.0111   -6.0107   -2.0615 C   0  0  0  0  0  0  0  0  0  0  0  0
    3.4419   -5.7527   -2.5048 C   0  0  0  0  0  0  0  0  0  0  0  0
    4.5096   -5.8240   -1.7364 N   0  0  0  0  0  0  0  0  0  0  0  0
    5.6007   -5.5346   -2.4302 N   0  0  0  0  0  0  0  0  0  0  0  0
    6.9721   -5.5123   -1.9013 C   0  0  0  0  0  0  0  0  0  0  0  0
    5.2482   -5.2671   -3.6867 C   0  0  0  0  0  0  0  0  0  0  0  0
    5.9408   -4.9049   -4.8611 C   0  0  0  0  0  0  0  0  0  0  0  0
    5.2483   -4.7035   -6.0031 C   0  0  0  0  0  0  0  0  0  0  0  0
    6.1274   -4.2556   -7.4847 Cl  0  0  0  0  0  0  0  0  0  0  0  0
    3.8963   -4.8347   -6.0480 C   0  0  0  0  0  0  0  0  0  0  0  0
    3.1805   -5.1846   -4.9561 C   0  0  0  0  0  0  0  0  0  0  0  0
    3.8333   -5.4088   -3.7424 C   0  0  0  0  0  0  0  0  0  0  0  0
    1.4553   -5.2780   -1.0975 N   0  0  0  0  0  0  0  0  0  0  0  0
    0.2087   -5.5082   -0.6926 C   0  0  0  0  0  0  0  0  0  0  0  0
    0.5320   -3.6831   -1.1740 C   0  0  0  0  0  0  0  0  0  0  0  0
    1.3579   -4.4484   -1.7634 O   0  0  0  0  0  0  0  0  0  0  0  0
   -0.9132   -3.8959   -1.3379 N   0  0  0  0  0  0  0  0  0  0  0  0
   -1.8780   -5.0940   -1.3119 C   0  0  0  0  0  0  0  0  0  0  0  0
   -2.8123   -4.2606   -2.2037 C   0  0  0  0  0  0  0  0  0  0  0  0
   -4.3202   -4.4510   -2.1859 C   0  0  0  0  0  0  0  0  0  0  0  0
   -5.5711   -4.6090   -2.1711 N   0  0  0  0  0  0  0  0  0  0  0  0
   -2.1443   -3.0110   -1.6067 C   0  0  0  0  0  0  0  0  0  0  0  0
    0.6820   -0.2210    1.0290 H   0  0  0  0  0  0  0  0  0  0  0  0
    0.6820    0.8452   -0.3552 H   0  0  0  0  0  0  0  0  0  0  0  0
    2.1087   -0.0875    0.0291 H   0  0  0  0  0  0  0  0  0  0  0  0
   -0.5380   -1.2228   -0.8454 H   0  0  0  0  0  0  0  0  0  0  0  0
    0.8887   -1.0893   -1.8453 H   0  0  0  0  0  0  0  0  0  0  0  0
    2.1087   -2.5478   -0.2995 H   0  0  0  0  0  0  0  0  0  0  0  0
    0.7951   -2.0561    1.7981 H   0  0  0  0  0  0  0  0  0  0  0  0
   -2.7175   -5.3485    0.8669 H   0  0  0  0  0  0  0  0  0  0  0  0
   -2.5396   -7.1816   -0.9085 H   0  0  0  0  0  0  0  0  0  0  0  0
    1.6697   -7.6144   -3.4482 H   0  0  0  0  0  0  0  0  0  0  0  0
    7.5714   -6.2207   -2.4341 H   0  0  0  0  0  0  0  0  0  0  0  0
    7.3853   -4.5328   -2.0226 H   0  0  0  0  0  0  0  0  0  0  0  0
    6.9578   -5.7672   -0.8622 H   0  0  0  0  0  0  0  0  0  0  0  0
    7.0046   -4.7907   -4.8472 H   0  0  0  0  0  0  0  0  0  0  0  0
    3.3856   -4.6565   -6.9712 H   0  0  0  0  0  0  0  0  0  0  0  0
    2.1176   -5.2893   -5.0217 H   0  0  0  0  0  0  0  0  0  0  0  0
   -1.5643   -6.0797   -1.5856 H   0  0  0  0  0  0  0  0  0  0  0  0
   -2.2734   -5.3297   -0.3460 H   0  0  0  0  0  0  0  0  0  0  0  0
   -2.6603   -4.3900   -3.2549 H   0  0  0  0  0  0  0  0  0  0  0  0
   -2.6081   -2.4351   -0.8333 H   0  0  0  0  0  0  0  0  0  0  0  0
   -1.9804   -2.2148   -2.3025 H   0  0  0  0  0  0  0  0  0  0  0  0
  1  2  1  0  0  0  0
  1 35  1  0  0  0  0
  1 36  1  0  0  0  0
  1 37  1  0  0  0  0
  2  3  1  0  0  0  0
  2 38  1  0  0  0  0
  2 39  1  0  0  0  0
  3  4  1  0  0  0  0
  3 27  1  0  0  0  0
  3 40  1  0  0  0  0
  4  5  1  0  0  0  0
  4 41  1  0  0  0  0
  5  6  2  0  0  0  0
  5  7  1  0  0  0  0
  7  8  2  0  0  0  0
  7 26  1  0  0  0  0
  8  9  1  0  0  0  0
  8 42  1  0  0  0  0
  9 10  1  0  0  0  0
  9 43  1  0  0  0  0
 10 11  1  0  0  0  0
 10 26  2  0  0  0  0
 11 12  2  0  0  0  0
 12 13  1  0  0  0  0
 12 44  1  0  0  0  0
 13 14  1  0  0  0  0
 13 25  2  0  0  0  0
 14 15  2  0  0  0  0
 14 24  1  0  0  0  0
 15 16  1  0  0  0  0
 16 17  1  0  0  0  0
 16 18  1  0  0  0  0
 17 45  1  0  0  0  0
 17 46  1  0  0  0  0
 17 47  1  0  0  0  0
 18 19  1  0  0  0  0
 18 24  2  0  0  0  0
 19 20  2  0  0  0  0
 19 48  1  0  0  0  0
 20 21  1  0  0  0  0
 20 22  1  0  0  0  0
 22 23  2  0  0  0  0
 22 49  1  0  0  0  0
 23 24  1  0  0  0  0
 23 50  1  0  0  0  0
 25 26  1  0  0  0  0
 27 28  2  0  0  0  0
 27 29  1  0  0  0  0
 29 30  1  0  0  0  0
 29 34  1  0  0  0  0
 30 31  1  0  0  0  0
 30 51  1  0  0  0  0
 30 52  1  0  0  0  0
 31 32  1  0  0  0  0
 31 34  1  0  0  0  0
 31 53  1  0  0  0  0
 32 33  3  0  0  0  0
 34 54  1  0  0  0  0
 34 55  1  0  0  0  0
M  END
