REMARK  Name = 
REMARK  8 active torsions:
REMARK  status: ('A' for Active; 'I' for Inactive)
REMARK    1  A    between atoms: C_2  and  O_3
REMARK    2  A    between atoms: C_2  and  C_4
REMARK    3  A    between atoms: C_11  and  C_12
REMARK    4  A    between atoms: C_15  and  O_16
REMARK    5  A    between atoms: O_16  and  C_17
REMARK    6  A    between atoms: C_17  and  C_18
REMARK    7  A    between atoms: C_18  and  C_19
REMARK    8  A    between atoms: C_19  and  N_20
REMARK                            x       y       z     vdW  Elec       q    Type
REMARK                         _______ _______ _______ _____ _____    ______ ____
ROOT
ATOM      1  C   UNL     1       0.659  -2.329  -5.047  0.00  0.00    +0.000 A 
ATOM      2  C   UNL     1       0.606  -1.120  -5.721  0.00  0.00    +0.000 A 
ATOM      3  C   UNL     1      -0.554  -0.957  -6.515  0.00  0.00    +0.000 A 
ATOM      4  C   UNL     1      -1.343  -1.944  -6.900  0.00  0.00    +0.000 A 
ATOM      5  C   UNL     1      -1.194  -3.133  -6.242  0.00  0.00    +0.000 A 
ATOM      6  C   UNL     1      -0.164  -3.325  -5.353  0.00  0.00    +0.000 A 
ENDROOT
BRANCH   1  14
ATOM      7  C   UNL     1       2.962  -1.207  -0.599  0.00  0.00    +0.000 A 
ATOM      8  C   UNL     1       4.094  -1.817  -0.109  0.00  0.00    +0.000 A 
ATOM      9  N   UNL     1       4.464  -2.858  -0.918  0.00  0.00    +0.000 N 
ATOM     10  C   UNL     1       3.599  -2.916  -1.986  0.00  0.00    +0.000 A 
ATOM     11  C   UNL     1       3.628  -3.760  -3.102  0.00  0.00    +0.000 A 
ATOM     12  C   UNL     1       2.657  -3.534  -4.057  0.00  0.00    +0.000 A 
ATOM     13 CL   UNL     1       2.644  -4.526  -5.493  0.00  0.00    +0.000 Cl
ATOM     14  C   UNL     1       1.688  -2.522  -3.945  0.00  0.00    +0.000 A 
ATOM     15  C   UNL     1       1.670  -1.699  -2.830  0.00  0.00    +0.000 A 
ATOM     16  C   UNL     1       2.630  -1.893  -1.821  0.00  0.00    +0.000 A 
ATOM     17  H   UNL     1       5.250  -3.487  -0.755  0.00  0.00    +0.000 HD
BRANCH   7  19
ATOM     18  O   UNL     1       0.931  -0.000  -0.072  0.00  0.00    +0.000 OA
ATOM     19  C   UNL     1       2.202  -0.000  -0.072  0.00  0.00    +0.000 C 
BRANCH  19  20
ATOM     20  O   UNL     1       2.912   1.127   0.420  0.00  0.00    +0.000 OA
ATOM     21  H   UNL     1       3.912   1.127   0.420  0.00  0.00    +0.000 HD
ENDBRANCH  19  20
ENDBRANCH   7  19
ENDBRANCH   1  14
BRANCH   4  22
ATOM     22  O   UNL     1      -2.294  -1.778  -7.941  0.00  0.00    +0.000 OA
BRANCH  22  23
ATOM     23  C   UNL     1      -3.123  -2.865  -8.325  0.00  0.00    +0.000 C 
BRANCH  23  24
ATOM     24  C   UNL     1      -2.257  -4.021  -8.799  0.00  0.00    +0.000 C 
BRANCH  24  25
ATOM     25  C   UNL     1      -1.336  -4.459  -7.672  0.00  0.00    +0.000 C 
BRANCH  25  26
ATOM     26  N   UNL     1      -2.141  -4.891  -6.520  0.00  0.00    +0.000 N 
ATOM     27  C   UNL     1      -2.279  -6.344  -6.230  0.00  0.00    +0.000 C 
ATOM     28  C   UNL     1      -3.206  -6.611  -5.059  0.00  0.00    +0.000 C 
ATOM     29  O   UNL     1      -2.879  -5.744  -3.972  0.00  0.00    +0.000 OA
ATOM     30  C   UNL     1      -3.264  -4.437  -4.340  0.00  0.00    +0.000 C 
ATOM     31  C   UNL     1      -2.715  -3.958  -5.677  0.00  0.00    +0.000 C 
ATOM     32  O   UNL     1      -2.815  -2.771  -5.935  0.00  0.00    +0.000 OA
ENDBRANCH  25  26
ENDBRANCH  24  25
ENDBRANCH  23  24
ENDBRANCH  22  23
ENDBRANCH   4  22
TORSDOF 8
