
 OpenBabel03132514253D

 46 48  0  0  0  0  0  0  0  0999 V2000
    1.0187   -0.0365   -0.0912 C   0  0  0  0  0  0  0  0  0  0  0  0
    0.5454    0.6326   -1.2508 O   0  0  0  0  0  0  0  0  0  0  0  0
    0.8884    1.9920   -1.4758 C   0  0  0  0  0  0  0  0  0  0  0  0
   -0.0752    2.9019   -1.8785 C   0  0  0  0  0  0  0  0  0  0  0  0
    0.4536    4.1318   -2.3365 C   0  0  0  0  0  0  0  0  0  0  0  0
   -0.4517    5.0242   -3.1699 C   0  0  0  0  0  0  0  0  0  0  0  0
   -1.5788    5.5122   -2.5295 C   0  0  0  0  0  0  0  0  0  0  0  0
   -2.4937    6.1596   -3.3931 C   0  0  0  0  0  0  0  0  0  0  0  0
   -2.1983    6.6012   -4.6021 C   0  0  0  0  0  0  0  0  0  0  0  0
   -1.0370    6.1349   -5.1529 C   0  0  0  0  0  0  0  0  0  0  0  0
   -0.1543    5.3865   -4.4123 C   0  0  0  0  0  0  0  0  0  0  0  0
    1.4021    4.8981   -5.1247 Cl  0  0  0  0  0  0  0  0  0  0  0  0
   -3.0710    7.5434   -5.3173 N   0  0  0  0  0  0  0  0  0  0  0  0
   -2.7423    7.9606   -6.5209 C   0  0  0  0  0  0  0  0  0  0  0  0
   -3.9155    6.3607   -2.8947 C   0  0  0  0  0  0  0  0  0  0  0  0
   -3.8946    7.2050   -1.6309 C   0  0  0  0  0  0  0  0  0  0  0  0
   -4.5075    8.3180   -1.6000 O   0  0  0  0  0  0  0  0  0  0  0  0
   -3.1904    6.7502   -0.4847 O   0  0  0  0  0  0  0  0  0  0  0  0
    1.6789    4.5584   -2.0902 C   0  0  0  0  0  0  0  0  0  0  0  0
    2.5663    3.6258   -1.6296 C   0  0  0  0  0  0  0  0  0  0  0  0
    2.1490    2.3629   -1.2850 C   0  0  0  0  0  0  0  0  0  0  0  0
    3.1394    1.3814   -0.6798 C   0  0  0  0  0  0  0  0  0  0  0  0
    4.2779    1.1424   -1.6581 C   0  0  0  0  0  0  0  0  0  0  0  0
    3.6949    1.9548    0.6137 C   0  0  0  0  0  0  0  0  0  0  0  0
    2.4359    0.0656   -0.3898 C   0  0  0  0  0  0  0  0  0  0  0  0
    1.3723    0.2890    0.5242 O   0  0  0  0  0  0  0  0  0  0  0  0
    0.6620   -1.0453   -0.0909 H   0  0  0  0  0  0  0  0  0  0  0  0
    0.6620    0.4681    0.7823 H   0  0  0  0  0  0  0  0  0  0  0  0
    2.0887   -0.0365   -0.0912 H   0  0  0  0  0  0  0  0  0  0  0  0
   -1.1242    2.6936   -1.8462 H   0  0  0  0  0  0  0  0  0  0  0  0
   -1.7427    5.4089   -1.4772 H   0  0  0  0  0  0  0  0  0  0  0  0
   -0.8123    6.3560   -6.1755 H   0  0  0  0  0  0  0  0  0  0  0  0
   -3.3776    8.6465   -7.0415 H   0  0  0  0  0  0  0  0  0  0  0  0
   -4.4901    6.8592   -3.6472 H   0  0  0  0  0  0  0  0  0  0  0  0
   -3.1767    7.3057    0.3467 H   0  0  0  0  0  0  0  0  0  0  0  0
    1.9620    5.5789   -2.2430 H   0  0  0  0  0  0  0  0  0  0  0  0
    3.6007    3.8833   -1.5361 H   0  0  0  0  0  0  0  0  0  0  0  0
    4.7732    2.0686   -1.8623 H   0  0  0  0  0  0  0  0  0  0  0  0
    4.9751    0.4515   -1.2321 H   0  0  0  0  0  0  0  0  0  0  0  0
    3.8869    0.7387   -2.5686 H   0  0  0  0  0  0  0  0  0  0  0  0
    2.8935    2.1231    1.3024 H   0  0  0  0  0  0  0  0  0  0  0  0
    4.3921    1.2639    1.0397 H   0  0  0  0  0  0  0  0  0  0  0  0
    4.1902    2.8811    0.4095 H   0  0  0  0  0  0  0  0  0  0  0  0
    2.0449   -0.3380   -1.3003 H   0  0  0  0  0  0  0  0  0  0  0  0
    3.1331   -0.6253    0.0363 H   0  0  0  0  0  0  0  0  0  0  0  0
    1.7378    0.6662    1.3752 H   0  0  0  0  0  0  0  0  0  0  0  0
  1  2  1  0  0  0  0
  1 27  1  0  0  0  0
  1 28  1  0  0  0  0
  1 29  1  0  0  0  0
  2  3  1  0  0  0  0
  3  4  1  0  0  0  0
  3 21  2  0  0  0  0
  4  5  2  0  0  0  0
  4 30  1  0  0  0  0
  5  6  1  0  0  0  0
  5 19  1  0  0  0  0
  6  7  1  0  0  0  0
  6 11  2  0  0  0  0
  7  8  2  0  0  0  0
  7 31  1  0  0  0  0
  8  9  1  0  0  0  0
  8 15  1  0  0  0  0
  9 10  2  0  0  0  0
  9 13  1  0  0  0  0
 10 11  1  0  0  0  0
 10 32  1  0  0  0  0
 11 12  1  0  0  0  0
 13 14  2  0  0  0  0
 14 15  1  0  0  0  0
 14 33  1  0  0  0  0
 15 16  1  0  0  0  0
 15 34  1  0  0  0  0
 16 17  2  0  0  0  0
 16 18  1  0  0  0  0
 18 35  1  0  0  0  0
 19 20  2  0  0  0  0
 19 36  1  0  0  0  0
 20 21  1  0  0  0  0
 20 37  1  0  0  0  0
 21 22  1  0  0  0  0
 22 23  1  0  0  0  0
 22 24  1  0  0  0  0
 22 25  1  0  0  0  0
 23 38  1  0  0  0  0
 23 39  1  0  0  0  0
 23 40  1  0  0  0  0
 24 41  1  0  0  0  0
 24 42  1  0  0  0  0
 24 43  1  0  0  0  0
 25 26  1  0  0  0  0
 25 44  1  0  0  0  0
 25 45  1  0  0  0  0
 26 46  1  0  0  0  0
M  END
