REMARK  Name = 
REMARK  7 active torsions:
REMARK  status: ('A' for Active; 'I' for Inactive)
REMARK    1  A    between atoms: C_1  and  O_2
REMARK    2  A    between atoms: O_2  and  C_3
REMARK    3  A    between atoms: C_5  and  C_6
REMARK    4  A    between atoms: C_9  and  C_10
REMARK    5  A    between atoms: C_10  and  O_12
REMARK    6  A    between atoms: C_21  and  C_22
REMARK    7  A    between atoms: C_22  and  O_23
REMARK                            x       y       z     vdW  Elec       q    Type
REMARK                         _______ _______ _______ _____ _____    ______ ____
ROOT
ATOM      1  C   UNL     1      -0.806  -3.923  -4.295  0.00  0.00    +0.000 A 
ATOM      2  C   UNL     1      -1.987  -3.441  -4.836  0.00  0.00    +0.000 A 
ATOM      3  C   UNL     1      -2.899  -4.455  -5.214  0.00  0.00    +0.000 A 
ATOM      4  C   UNL     1      -4.275  -4.077  -5.414  0.00  0.00    +0.000 A 
ATOM      5  N   UNL     1      -5.213  -5.037  -5.786  0.00  0.00    +0.000 NA
ATOM      6  N   UNL     1      -3.424  -6.606  -6.060  0.00  0.00    +0.000 N 
ATOM      7  C   UNL     1      -2.577  -5.722  -5.396  0.00  0.00    +0.000 A 
ATOM      8  C   UNL     1      -1.367  -6.120  -4.898  0.00  0.00    +0.000 A 
ATOM      9  C   UNL     1      -0.476  -5.205  -4.393  0.00  0.00    +0.000 A 
ATOM     10 CL   UNL     1       1.136  -5.744  -3.864  0.00  0.00    +0.000 Cl
ATOM     11  H   UNL     1      -3.148  -7.580  -6.186  0.00  0.00    +0.000 HD
ENDROOT
BRANCH   1  14
ATOM     12  C   UNL     1       0.824  -1.825  -1.686  0.00  0.00    +0.000 A 
ATOM     13  C   UNL     1      -0.220  -2.317  -2.453  0.00  0.00    +0.000 A 
ATOM     14  C   UNL     1       0.199  -3.006  -3.616  0.00  0.00    +0.000 A 
ATOM     15  C   UNL     1       1.402  -2.909  -4.152  0.00  0.00    +0.000 A 
ATOM     16  C   UNL     1       2.374  -2.352  -3.368  0.00  0.00    +0.000 A 
ATOM     17  C   UNL     1       2.063  -1.776  -2.160  0.00  0.00    +0.000 A 
BRANCH  17  18
ATOM     18  C   UNL     1       3.148  -1.074  -1.359  0.00  0.00    +0.000 C 
ATOM     19  C   UNL     1       3.204   0.455  -1.200  0.00  0.00    +0.000 C 
ATOM     20  C   UNL     1       4.739   0.400  -1.288  0.00  0.00    +0.000 C 
ATOM     21  C   UNL     1       4.609  -0.986  -1.930  0.00  0.00    +0.000 C 
BRANCH  18  22
ATOM     22  O   UNL     1       3.250  -1.731  -0.115  0.00  0.00    +0.000 OA
ATOM     23  H   UNL     1       3.959  -1.291   0.437  0.00  0.00    +0.000 HD
ENDBRANCH  18  22
ENDBRANCH  17  18
BRANCH  12  25
ATOM     24  C   UNL     1       0.954   0.035  -0.082  0.00  0.00    +0.000 C 
ATOM     25  O   UNL     1       0.481  -1.258  -0.430  0.00  0.00    +0.000 OA
ENDBRANCH  12  25
ENDBRANCH   1  14
BRANCH   4  26
ATOM     26  C   UNL     1      -4.702  -2.632  -5.218  0.00  0.00    +0.000 C 
ATOM     27  O   UNL     1      -5.916  -2.299  -5.394  0.00  0.00    +0.000 OA
BRANCH  26  28
ATOM     28  O   UNL     1      -3.746  -1.654  -4.838  0.00  0.00    +0.000 OA
ATOM     29  H   UNL     1      -4.027  -0.703  -4.709  0.00  0.00    +0.000 HD
ENDBRANCH  26  28
ENDBRANCH   4  26
TORSDOF 6
