REMARK  Name = 
REMARK  3 active torsions:
REMARK  status: ('A' for Active; 'I' for Inactive)
REMARK    1  A    between atoms: C_2  and  O_3
REMARK    2  A    between atoms: C_2  and  C_4
REMARK    3  A    between atoms: C_11  and  C_12
REMARK                            x       y       z     vdW  Elec       q    Type
REMARK                         _______ _______ _______ _____ _____    ______ ____
ROOT
ATOM      1  C   UNL     1       3.105   1.192   0.388  0.00  0.00    +0.000 A 
ATOM      2  N   UNL     1       4.107   1.669  -0.291  0.00  0.00    +0.000 NA
ATOM      3  N   UNL     1       4.568   2.852   0.295  0.00  0.00    +0.000 N 
ATOM      4  C   UNL     1       3.803   3.126   1.411  0.00  0.00    +0.000 A 
ATOM      5  C   UNL     1       3.813   4.147   2.354  0.00  0.00    +0.000 A 
ATOM      6  C   UNL     1       2.893   4.148   3.377  0.00  0.00    +0.000 A 
ATOM      7 CL   UNL     1       2.903   5.466   4.573  0.00  0.00    +0.000 Cl
ATOM      8  C   UNL     1       1.952   3.123   3.485  0.00  0.00    +0.000 A 
ATOM      9  C   UNL     1       1.927   2.100   2.558  0.00  0.00    +0.000 A 
ATOM     10  C   UNL     1       2.854   2.093   1.511  0.00  0.00    +0.000 A 
ATOM     11  H   UNL     1       5.344   3.419  -0.045  0.00  0.00    +0.000 HD
ENDROOT
BRANCH   8  12
ATOM     12  C   UNL     1       0.952   3.131   4.629  0.00  0.00    +0.000 A 
ATOM     13  C   UNL     1       0.100   4.148   4.777  0.00  0.00    +0.000 A 
ATOM     14  C   UNL     1      -0.822   4.118   5.860  0.00  0.00    +0.000 A 
ATOM     15  C   UNL     1      -0.629   3.200   6.905  0.00  0.00    +0.000 A 
ATOM     16  C   UNL     1       0.207   2.215   6.759  0.00  0.00    +0.000 A 
ATOM     17  C   UNL     1       0.909   2.061   5.556  0.00  0.00    +0.000 A 
ATOM     18  C   UNL     1       0.423   1.228   7.895  0.00  0.00    +0.000 C 
ATOM     19  C   UNL     1       0.938   1.969   9.118  0.00  0.00    +0.000 C 
ATOM     20  C   UNL     1      -1.398   3.358   8.207  0.00  0.00    +0.000 C 
ENDBRANCH   8  12
BRANCH   1  22
ATOM     21  O   UNL     1       1.074  -0.067   0.004  0.00  0.00    +0.000 OA
ATOM     22  C   UNL     1       2.345  -0.067   0.004  0.00  0.00    +0.000 C 
BRANCH  22  23
ATOM     23  O   UNL     1       3.055  -1.244  -0.355  0.00  0.00    +0.000 OA
ATOM     24  H   UNL     1       4.055  -1.244  -0.355  0.00  0.00    +0.000 HD
ENDBRANCH  22  23
ENDBRANCH   1  22
TORSDOF 3
