
 OpenBabel03132514253D

 68 74  0  0  0  0  0  0  0  0999 V2000
    0.9133    0.0211    0.0452 C   0  0  0  0  0  0  0  0  0  0  0  0
    0.3100    1.5573   -0.6978 S   0  0  0  0  0  0  0  0  0  0  0  0
    0.8201    1.6628   -2.1369 O   0  0  0  0  0  0  0  0  0  0  0  0
   -1.2652    1.5573   -0.6978 N   0  0  0  0  0  0  0  0  0  0  0  0
   -2.0002    0.5043   -1.4132 C   0  0  0  0  0  0  0  0  0  0  0  0
   -3.0356    0.7643   -2.2958 C   0  0  0  0  0  0  0  0  0  0  0  0
   -3.7288   -0.3928   -2.7232 C   0  0  0  0  0  0  0  0  0  0  0  0
   -3.2643   -1.6247   -2.6207 C   0  0  0  0  0  0  0  0  0  0  0  0
   -3.8830   -2.7805   -3.3900 C   0  0  0  0  0  0  0  0  0  0  0  0
   -3.8665   -2.8843   -4.7712 C   0  0  0  0  0  0  0  0  0  0  0  0
   -4.6473   -3.9513   -5.2752 C   0  0  0  0  0  0  0  0  0  0  0  0
   -5.0649   -4.9781   -4.5573 C   0  0  0  0  0  0  0  0  0  0  0  0
   -5.5979   -6.2450   -5.2062 C   0  0  0  0  0  0  0  0  0  0  0  0
   -4.7681   -6.8460   -6.1318 N   0  0  0  0  0  0  0  0  0  0  0  0
   -5.2308   -7.9424   -6.8657 C   0  0  0  0  0  0  0  0  0  0  0  0
   -4.6381   -8.7935   -7.8963 N   0  0  0  0  0  0  0  0  0  0  0  0
   -5.5251   -9.6805   -8.2410 C   0  0  0  0  0  0  0  0  0  0  0  0
   -5.3266  -10.6905   -9.2192 O   0  0  0  0  0  0  0  0  0  0  0  0
   -4.0850  -10.7834   -9.9020 C   0  0  0  0  0  0  0  0  0  0  0  0
   -3.0951  -10.9942   -9.0196 C   0  0  0  0  0  0  0  0  0  0  0  0
   -2.5901   -9.7182   -8.5366 O   0  0  0  0  0  0  0  0  0  0  0  0
   -2.9425   -8.6730   -9.6121 C   0  0  0  0  0  0  0  0  0  0  0  0
   -1.6891   -8.3034  -10.3777 C   0  0  0  0  0  0  0  0  0  0  0  0
   -0.5645   -8.2471   -9.5124 O   0  0  0  0  0  0  0  0  0  0  0  0
   -1.5160   -9.2520  -11.3388 C   0  0  0  0  0  0  0  0  0  0  0  0
   -2.8086   -9.7556  -11.7776 O   0  0  0  0  0  0  0  0  0  0  0  0
   -3.7962   -9.4844  -10.6270 C   0  0  0  0  0  0  0  0  0  0  0  0
   -6.7019   -9.4957   -7.5091 N   0  0  0  0  0  0  0  0  0  0  0  0
   -6.5347   -8.4246   -6.6553 C   0  0  0  0  0  0  0  0  0  0  0  0
   -7.3556   -7.8074   -5.7184 C   0  0  0  0  0  0  0  0  0  0  0  0
   -6.8886   -6.7314   -4.9974 C   0  0  0  0  0  0  0  0  0  0  0  0
   -7.9402   -5.9547   -3.7893 Cl  0  0  0  0  0  0  0  0  0  0  0  0
   -4.9920   -4.8401   -3.1989 C   0  0  0  0  0  0  0  0  0  0  0  0
   -4.3600   -3.7603   -2.6312 C   0  0  0  0  0  0  0  0  0  0  0  0
   -2.1969   -1.8047   -1.7854 C   0  0  0  0  0  0  0  0  0  0  0  0
   -1.5487   -0.7303   -1.2256 C   0  0  0  0  0  0  0  0  0  0  0  0
    0.8966    2.9299    0.2347 N   0  0  0  0  0  0  0  0  0  0  0  0
    0.8758    4.2776   -0.5069 C   0  0  0  0  0  0  0  0  0  0  0  0
    0.4804    4.9194    0.8327 C   0  0  0  0  0  0  0  0  0  0  0  0
   -0.0992    3.5519    1.2308 C   0  0  0  0  0  0  0  0  0  0  0  0
    0.5566   -0.8134   -0.5218 H   0  0  0  0  0  0  0  0  0  0  0  0
    0.5566   -0.0527    1.0513 H   0  0  0  0  0  0  0  0  0  0  0  0
    1.9833    0.0211    0.0452 H   0  0  0  0  0  0  0  0  0  0  0  0
   -3.2883    1.7507   -2.6245 H   0  0  0  0  0  0  0  0  0  0  0  0
   -4.6966   -0.2604   -3.1598 H   0  0  0  0  0  0  0  0  0  0  0  0
   -3.3135   -2.2182   -5.3999 H   0  0  0  0  0  0  0  0  0  0  0  0
   -4.9183   -3.9243   -6.3100 H   0  0  0  0  0  0  0  0  0  0  0  0
   -4.1416  -11.5929  -10.5995 H   0  0  0  0  0  0  0  0  0  0  0  0
   -3.4706  -11.5625   -8.1944 H   0  0  0  0  0  0  0  0  0  0  0  0
   -2.3029  -11.5333   -9.4957 H   0  0  0  0  0  0  0  0  0  0  0  0
   -3.4039   -7.8030   -9.1936 H   0  0  0  0  0  0  0  0  0  0  0  0
   -1.8045   -7.3400  -10.8287 H   0  0  0  0  0  0  0  0  0  0  0  0
   -0.4342   -9.1378   -9.0769 H   0  0  0  0  0  0  0  0  0  0  0  0
   -0.9418  -10.0602  -10.9361 H   0  0  0  0  0  0  0  0  0  0  0  0
   -1.0012   -8.8222  -12.1726 H   0  0  0  0  0  0  0  0  0  0  0  0
   -4.6975   -9.0234  -10.9734 H   0  0  0  0  0  0  0  0  0  0  0  0
   -7.5469  -10.0608   -7.5928 H   0  0  0  0  0  0  0  0  0  0  0  0
   -8.3499   -8.1684   -5.5577 H   0  0  0  0  0  0  0  0  0  0  0  0
   -5.4335   -5.5839   -2.5690 H   0  0  0  0  0  0  0  0  0  0  0  0
   -4.2512   -3.7083   -1.5680 H   0  0  0  0  0  0  0  0  0  0  0  0
   -1.8616   -2.7964   -1.5644 H   0  0  0  0  0  0  0  0  0  0  0  0
   -0.6721   -0.8898   -0.6332 H   0  0  0  0  0  0  0  0  0  0  0  0
    1.7134    4.6242   -1.0755 H   0  0  0  0  0  0  0  0  0  0  0  0
    0.1357    4.3542   -1.2759 H   0  0  0  0  0  0  0  0  0  0  0  0
   -0.1022    5.8156    0.8800 H   0  0  0  0  0  0  0  0  0  0  0  0
    1.3039    5.2478    1.4318 H   0  0  0  0  0  0  0  0  0  0  0  0
   -1.1483    3.3464    1.1866 H   0  0  0  0  0  0  0  0  0  0  0  0
    0.0597    3.2784    2.2530 H   0  0  0  0  0  0  0  0  0  0  0  0
  1  2  1  0  0  0  0
  1 41  1  0  0  0  0
  1 42  1  0  0  0  0
  1 43  1  0  0  0  0
  2  3  2  0  0  0  0
  2  4  2  0  0  0  0
  2 37  1  0  0  0  0
  4  5  1  0  0  0  0
  5  6  1  0  0  0  0
  5 36  2  0  0  0  0
  6  7  2  0  0  0  0
  6 44  1  0  0  0  0
  7  8  1  0  0  0  0
  7 45  1  0  0  0  0
  8  9  1  0  0  0  0
  8 35  2  0  0  0  0
  9 10  1  0  0  0  0
  9 34  2  0  0  0  0
 10 11  2  0  0  0  0
 10 46  1  0  0  0  0
 11 12  1  0  0  0  0
 11 47  1  0  0  0  0
 12 13  1  0  0  0  0
 12 33  2  0  0  0  0
 13 14  1  0  0  0  0
 13 31  2  0  0  0  0
 14 15  2  0  0  0  0
 15 16  1  0  0  0  0
 15 29  1  0  0  0  0
 16 17  2  0  0  0  0
 17 18  1  0  0  0  0
 17 28  1  0  0  0  0
 18 19  1  0  0  0  0
 19 20  1  0  0  0  0
 19 27  1  0  0  0  0
 19 48  1  0  0  0  0
 20 21  1  0  0  0  0
 20 49  1  0  0  0  0
 20 50  1  0  0  0  0
 21 22  1  0  0  0  0
 22 23  1  0  0  0  0
 22 27  1  0  0  0  0
 22 51  1  0  0  0  0
 23 24  1  0  0  0  0
 23 25  1  0  0  0  0
 23 52  1  0  0  0  0
 24 53  1  0  0  0  0
 25 26  1  0  0  0  0
 25 54  1  0  0  0  0
 25 55  1  0  0  0  0
 26 27  1  0  0  0  0
 27 56  1  0  0  0  0
 28 29  1  0  0  0  0
 28 57  1  0  0  0  0
 29 30  2  0  0  0  0
 30 31  1  0  0  0  0
 30 58  1  0  0  0  0
 31 32  1  0  0  0  0
 33 34  1  0  0  0  0
 33 59  1  0  0  0  0
 34 60  1  0  0  0  0
 35 36  1  0  0  0  0
 35 61  1  0  0  0  0
 36 62  1  0  0  0  0
 37 38  1  0  0  0  0
 37 40  1  0  0  0  0
 38 39  1  0  0  0  0
 38 63  1  0  0  0  0
 38 64  1  0  0  0  0
 39 40  1  0  0  0  0
 39 65  1  0  0  0  0
 39 66  1  0  0  0  0
 40 67  1  0  0  0  0
 40 68  1  0  0  0  0
M  END
