REMARK  Name = 
REMARK  7 active torsions:
REMARK  status: ('A' for Active; 'I' for Inactive)
REMARK    1  A    between atoms: C_2  and  O_3
REMARK    2  A    between atoms: C_2  and  C_4
REMARK    3  A    between atoms: C_11  and  O_12
REMARK    4  A    between atoms: O_12  and  C_13
REMARK    5  A    between atoms: C_13  and  C_14
REMARK    6  A    between atoms: N_23  and  C_24
REMARK    7  A    between atoms: C_24  and  C_25
REMARK                            x       y       z     vdW  Elec       q    Type
REMARK                         _______ _______ _______ _____ _____    ______ ____
ROOT
ATOM      1  C   UNL     1       3.000  -1.113   0.582  0.00  0.00    +0.000 C 
ATOM      2  C   UNL     1       2.020  -2.289   0.629  0.00  0.00    +0.000 C 
ATOM      3  C   UNL     1       2.759  -3.548   1.100  0.00  0.00    +0.000 C 
ATOM      4  C   UNL     1       3.527  -3.209   2.352  0.00  0.00    +0.000 A 
ATOM      5  C   UNL     1       3.802  -1.951   2.764  0.00  0.00    +0.000 A 
ATOM      6  C   UNL     1       4.512  -1.999   3.931  0.00  0.00    +0.000 A 
ATOM      7  C   UNL     1       5.019  -1.008   4.726  0.00  0.00    +0.000 A 
ATOM      8  C   UNL     1       5.699  -1.306   5.855  0.00  0.00    +0.000 A 
ATOM      9  C   UNL     1       5.898  -2.642   6.231  0.00  0.00    +0.000 A 
ATOM     10  C   UNL     1       5.398  -3.643   5.447  0.00  0.00    +0.000 A 
ATOM     11  C   UNL     1       4.696  -3.315   4.282  0.00  0.00    +0.000 A 
ATOM     12  N   UNL     1       4.075  -4.107   3.291  0.00  0.00    +0.000 N 
ATOM     13  C   UNL     1       3.377  -0.709   2.015  0.00  0.00    +0.000 C 
ENDROOT
BRANCH   1  15
ATOM     14  O   UNL     1       0.969   0.016  -0.094  0.00  0.00    +0.000 OA
ATOM     15  C   UNL     1       2.240   0.016  -0.094  0.00  0.00    +0.000 C 
BRANCH  15  16
ATOM     16  O   UNL     1       2.950   1.071  -0.726  0.00  0.00    +0.000 OA
ATOM     17  H   UNL     1       3.950   1.071  -0.726  0.00  0.00    +0.000 HD
ENDBRANCH  15  16
ENDBRANCH   1  15
BRANCH   8  18
ATOM     18  O   UNL     1       6.214  -0.261   6.666  0.00  0.00    +0.000 OA
BRANCH  18  19
ATOM     19  C   UNL     1       6.929  -0.569   7.853  0.00  0.00    +0.000 C 
BRANCH  19  20
ATOM     20  C   UNL     1       6.032  -1.355   8.795  0.00  0.00    +0.000 A 
ATOM     21  C   UNL     1       6.339  -2.729   8.998  0.00  0.00    +0.000 A 
ATOM     22  C   UNL     1       5.426  -3.546   9.684  0.00  0.00    +0.000 A 
ATOM     23  C   UNL     1       4.452  -3.009  10.359  0.00  0.00    +0.000 A 
ATOM     24  C   UNL     1       4.319  -1.615  10.412  0.00  0.00    +0.000 A 
ATOM     25  C   UNL     1       5.035  -0.809   9.494  0.00  0.00    +0.000 A 
ENDBRANCH  19  20
ENDBRANCH  18  19
ENDBRANCH   8  18
BRANCH  12  26
ATOM     26  C   UNL     1       4.012  -5.575   3.248  0.00  0.00    +0.000 C 
BRANCH  26  27
ATOM     27  C   UNL     1       2.559  -6.020   3.265  0.00  0.00    +0.000 A 
ATOM     28  C   UNL     1       1.663  -5.616   2.235  0.00  0.00    +0.000 A 
ATOM     29  C   UNL     1       0.281  -5.782   2.420  0.00  0.00    +0.000 A 
ATOM     30  C   UNL     1      -0.161  -6.537   3.383  0.00  0.00    +0.000 A 
ATOM     31  F   UNL     1      -1.470  -6.685   3.562  0.00  0.00    +0.000 F 
ATOM     32  C   UNL     1       0.741  -7.193   4.231  0.00  0.00    +0.000 A 
ATOM     33  C   UNL     1       2.101  -6.798   4.247  0.00  0.00    +0.000 A 
ENDBRANCH  26  27
ENDBRANCH  12  26
TORSDOF 7
