
 OpenBabel03132514253D

 68 73  0  0  0  0  0  0  0  0999 V2000
    1.0970   -0.0223    0.0096 C   0  0  0  0  0  0  0  0  0  0  0  0
    0.5903    0.0005   -1.4233 C   0  0  0  0  0  0  0  0  0  0  0  0
    1.0803   -1.1886   -2.1353 N   0  0  0  0  0  0  0  0  0  0  0  0
    1.8399   -1.2811   -3.2538 C   0  0  0  0  0  0  0  0  0  0  0  0
    1.8703   -2.5972   -3.5757 C   0  0  0  0  0  0  0  0  0  0  0  0
    2.6018   -3.2191   -4.7540 C   0  0  0  0  0  0  0  0  0  0  0  0
    3.3548   -2.3856   -5.6554 C   0  0  0  0  0  0  0  0  0  0  0  0
    3.4147   -0.9628   -5.4402 C   0  0  0  0  0  0  0  0  0  0  0  0
    4.1430   -0.1568   -6.3119 N   0  0  0  0  0  0  0  0  0  0  0  0
    4.7761   -0.6951   -7.3319 C   0  0  0  0  0  0  0  0  0  0  0  0
    5.5260   -0.0724   -8.2734 N   0  0  0  0  0  0  0  0  0  0  0  0
    5.8613   -1.0276   -9.1743 C   0  0  0  0  0  0  0  0  0  0  0  0
    5.3236   -2.1471   -8.7734 C   0  0  0  0  0  0  0  0  0  0  0  0
    4.6752   -1.9486   -7.6806 C   0  0  0  0  0  0  0  0  0  0  0  0
    1.1556   -3.2321   -2.6872 C   0  0  0  0  0  0  0  0  0  0  0  0
    0.9183   -4.7332   -2.6647 C   0  0  0  0  0  0  0  0  0  0  0  0
    2.0200   -5.5614   -2.5274 C   0  0  0  0  0  0  0  0  0  0  0  0
    1.7459   -6.9266   -2.7786 C   0  0  0  0  0  0  0  0  0  0  0  0
    0.5373   -7.4589   -2.7856 C   0  0  0  0  0  0  0  0  0  0  0  0
   -0.5118   -6.5847   -2.8538 C   0  0  0  0  0  0  0  0  0  0  0  0
   -1.8746   -7.1019   -3.0437 N   0  0  0  0  0  0  0  0  0  0  0  0
   -2.1019   -8.5496   -3.1589 C   0  0  0  0  0  0  0  0  0  0  0  0
   -3.2801   -8.9968   -3.3231 O   0  0  0  0  0  0  0  0  0  0  0  0
   -0.9663   -9.4802   -3.0841 N   0  0  0  0  0  0  0  0  0  0  0  0
    0.3965   -8.9629   -2.8941 C   0  0  0  0  0  0  0  0  0  0  0  0
    1.4299   -9.4686   -3.6654 C   0  0  0  0  0  0  0  0  0  0  0  0
    2.7186   -9.1162   -3.1993 C   0  0  0  0  0  0  0  0  0  0  0  0
    2.9666   -8.1290   -2.3579 C   0  0  0  0  0  0  0  0  0  0  0  0
    4.2778   -7.6168   -2.1712 O   0  0  0  0  0  0  0  0  0  0  0  0
    4.5013   -6.5540   -1.2563 C   0  0  0  0  0  0  0  0  0  0  0  0
    3.6902   -5.3407   -1.6811 C   0  0  0  0  0  0  0  0  0  0  0  0
    4.3240   -4.1098   -1.6415 C   0  0  0  0  0  0  0  0  0  0  0  0
    3.4470   -3.0086   -1.7840 C   0  0  0  0  0  0  0  0  0  0  0  0
    2.2201   -3.0858   -2.2666 C   0  0  0  0  0  0  0  0  0  0  0  0
    1.6748   -4.3372   -2.3442 C   0  0  0  0  0  0  0  0  0  0  0  0
    2.4328   -5.4552   -2.0924 C   0  0  0  0  0  0  0  0  0  0  0  0
    1.8931   -7.6265   -1.6764 C   0  0  0  0  0  0  0  0  0  0  0  0
    0.6132   -8.0192   -1.9855 C   0  0  0  0  0  0  0  0  0  0  0  0
   -0.3105   -5.2296   -2.7473 C   0  0  0  0  0  0  0  0  0  0  0  0
    0.6828   -2.3945   -1.8336 N   0  0  0  0  0  0  0  0  0  0  0  0
    0.7403   -0.9039    0.5000 H   0  0  0  0  0  0  0  0  0  0  0  0
    0.7403    0.8432    0.5278 H   0  0  0  0  0  0  0  0  0  0  0  0
    2.1670   -0.0223    0.0096 H   0  0  0  0  0  0  0  0  0  0  0  0
   -0.4797    0.0005   -1.4233 H   0  0  0  0  0  0  0  0  0  0  0  0
    0.9470    0.8821   -1.9137 H   0  0  0  0  0  0  0  0  0  0  0  0
    2.3180   -0.4789   -3.7761 H   0  0  0  0  0  0  0  0  0  0  0  0
    3.8697   -2.8234   -6.4849 H   0  0  0  0  0  0  0  0  0  0  0  0
    2.8998   -0.5250   -4.6107 H   0  0  0  0  0  0  0  0  0  0  0  0
    5.7851    0.9138   -8.2988 H   0  0  0  0  0  0  0  0  0  0  0  0
    6.4570   -0.8895  -10.0524 H   0  0  0  0  0  0  0  0  0  0  0  0
    5.4092   -3.0872   -9.2772 H   0  0  0  0  0  0  0  0  0  0  0  0
    2.9904   -5.2014   -2.2560 H   0  0  0  0  0  0  0  0  0  0  0  0
    2.5755   -7.5727   -2.9767 H   0  0  0  0  0  0  0  0  0  0  0  0
    0.3871   -8.5173   -2.7402 H   0  0  0  0  0  0  0  0  0  0  0  0
   -2.6625   -6.4562   -3.0956 H   0  0  0  0  0  0  0  0  0  0  0  0
   -1.1240  -10.4847   -3.1640 H   0  0  0  0  0  0  0  0  0  0  0  0
    1.2684  -10.0711   -4.5348 H   0  0  0  0  0  0  0  0  0  0  0  0
    3.5499   -9.6895   -3.5530 H   0  0  0  0  0  0  0  0  0  0  0  0
    4.2005   -6.8585   -0.2756 H   0  0  0  0  0  0  0  0  0  0  0  0
    5.5413   -6.3028   -1.2485 H   0  0  0  0  0  0  0  0  0  0  0  0
    5.3809   -4.0014   -1.5145 H   0  0  0  0  0  0  0  0  0  0  0  0
    3.8026   -2.0464   -1.4797 H   0  0  0  0  0  0  0  0  0  0  0  0
    1.6819   -2.2158   -2.5801 H   0  0  0  0  0  0  0  0  0  0  0  0
    0.6428   -4.4474   -2.6047 H   0  0  0  0  0  0  0  0  0  0  0  0
    2.0060   -6.4268   -2.2289 H   0  0  0  0  0  0  0  0  0  0  0  0
    2.0520   -6.9174   -0.8911 H   0  0  0  0  0  0  0  0  0  0  0  0
   -0.2165   -7.5604   -1.4894 H   0  0  0  0  0  0  0  0  0  0  0  0
   -1.1516   -4.5684   -2.7308 H   0  0  0  0  0  0  0  0  0  0  0  0
  1  2  1  0  0  0  0
  1 41  1  0  0  0  0
  1 42  1  0  0  0  0
  1 43  1  0  0  0  0
  2  3  1  0  0  0  0
  2 44  1  0  0  0  0
  2 45  1  0  0  0  0
  3  4  1  0  0  0  0
  3 40  1  0  0  0  0
  4  5  2  0  0  0  0
  4 46  1  0  0  0  0
  5  6  1  0  0  0  0
  5 15  1  0  0  0  0
  6  7  1  0  0  0  0
  6 14  2  0  0  0  0
  7  8  2  0  0  0  0
  7 47  1  0  0  0  0
  8  9  1  0  0  0  0
  8 48  1  0  0  0  0
  9 10  2  0  0  0  0
 10 11  1  0  0  0  0
 10 14  1  0  0  0  0
 11 12  1  0  0  0  0
 11 49  1  0  0  0  0
 12 13  2  0  0  0  0
 12 50  1  0  0  0  0
 13 14  1  0  0  0  0
 13 51  1  0  0  0  0
 15 16  1  0  0  0  0
 15 40  2  0  0  0  0
 16 17  1  0  0  0  0
 16 39  2  0  0  0  0
 17 18  2  0  0  0  0
 17 52  1  0  0  0  0
 18 19  1  0  0  0  0
 18 53  1  0  0  0  0
 19 20  2  0  0  0  0
 19 54  1  0  0  0  0
 20 21  1  0  0  0  0
 20 39  1  0  0  0  0
 21 22  1  0  0  0  0
 21 55  1  0  0  0  0
 22 23  2  0  0  0  0
 22 24  1  0  0  0  0
 24 25  1  0  0  0  0
 24 56  1  0  0  0  0
 25 26  1  0  0  0  0
 25 38  2  0  0  0  0
 26 27  2  0  0  0  0
 26 57  1  0  0  0  0
 27 28  1  0  0  0  0
 27 58  1  0  0  0  0
 28 29  1  0  0  0  0
 28 37  2  0  0  0  0
 29 30  1  0  0  0  0
 30 31  1  0  0  0  0
 30 59  1  0  0  0  0
 30 60  1  0  0  0  0
 31 32  1  0  0  0  0
 31 36  2  0  0  0  0
 32 33  2  0  0  0  0
 32 61  1  0  0  0  0
 33 34  1  0  0  0  0
 33 62  1  0  0  0  0
 34 35  2  0  0  0  0
 34 63  1  0  0  0  0
 35 36  1  0  0  0  0
 35 64  1  0  0  0  0
 36 65  1  0  0  0  0
 37 38  1  0  0  0  0
 37 66  1  0  0  0  0
 38 67  1  0  0  0  0
 39 68  1  0  0  0  0
M  END
