REMARK  Name = 
REMARK  5 active torsions:
REMARK  status: ('A' for Active; 'I' for Inactive)
REMARK    1  A    between atoms: C_4  and  N_5
REMARK    2  A    between atoms: C_14  and  C_15
REMARK    3  A    between atoms: C_18  and  O_19
REMARK    4  A    between atoms: O_19  and  C_20
REMARK    5  A    between atoms: C_20  and  C_21
REMARK                            x       y       z     vdW  Elec       q    Type
REMARK                         _______ _______ _______ _____ _____    ______ ____
ROOT
ATOM      1  O   UNL     1      -1.725   2.022   0.006  0.00  0.00    +0.000 OA
ATOM      2  C   UNL     1      -1.399   0.833   0.014  0.00  0.00    +0.000 A 
ATOM      3  C   UNL     1      -2.316  -0.289   0.000  0.00  0.00    +0.000 A 
ATOM      4  C   UNL     1      -1.787  -1.598  -0.042  0.00  0.00    +0.000 A 
ATOM      5  O   UNL     1      -0.466  -1.868   0.011  0.00  0.00    +0.000 OA
ATOM      6  C   UNL     1       0.453  -0.834   0.016  0.00  0.00    +0.000 A 
ATOM      7  C   UNL     1       1.788  -1.207   0.016  0.00  0.00    +0.000 A 
ATOM      8  C   UNL     1       2.738  -0.204  -0.004  0.00  0.00    +0.000 A 
ATOM      9  C   UNL     1       2.366   1.133  -0.020  0.00  0.00    +0.000 A 
ATOM     10  C   UNL     1       1.031   1.477  -0.013  0.00  0.00    +0.000 A 
ATOM     11  C   UNL     1       0.044   0.484   0.009  0.00  0.00    +0.000 A 
ENDROOT
BRANCH   4  12
ATOM     12  N   UNL     1      -2.725  -2.725  -0.149  0.00  0.00    +0.000 N 
ATOM     13  C   UNL     1      -3.723  -3.069  -1.178  0.00  0.00    +0.000 C 
ATOM     14  C   UNL     1      -5.035  -3.411  -0.510  0.00  0.00    +0.000 C 
ATOM     15  O   UNL     1      -4.874  -4.487   0.414  0.00  0.00    +0.000 OA
ATOM     16  C   UNL     1      -3.932  -4.125   1.423  0.00  0.00    +0.000 C 
ATOM     17  C   UNL     1      -2.571  -3.829   0.820  0.00  0.00    +0.000 C 
ENDBRANCH   4  12
BRANCH   8  18
ATOM     18  C   UNL     1       4.213  -0.570  -0.009  0.00  0.00    +0.000 A 
ATOM     19  C   UNL     1       4.722  -1.334  -1.046  0.00  0.00    +0.000 A 
ATOM     20  C   UNL     1       6.015  -1.852  -0.796  0.00  0.00    +0.000 A 
ATOM     21  C   UNL     1       6.837  -1.397   0.132  0.00  0.00    +0.000 A 
ATOM     22  C   UNL     1       6.287  -0.592   1.091  0.00  0.00    +0.000 A 
ATOM     23  C   UNL     1       4.990  -0.151   0.984  0.00  0.00    +0.000 A 
BRANCH  21  24
ATOM     24  O   UNL     1       8.218  -1.727   0.135  0.00  0.00    +0.000 OA
BRANCH  24  25
ATOM     25  C   UNL     1       9.068  -1.216   1.152  0.00  0.00    +0.000 C 
BRANCH  25  26
ATOM     26  C   UNL     1       9.053   0.303   1.109  0.00  0.00    +0.000 A 
ATOM     27  C   UNL     1      10.191   1.015   0.765  0.00  0.00    +0.000 A 
ATOM     28  C   UNL     1      10.106   2.400   1.041  0.00  0.00    +0.000 A 
ATOM     29  C   UNL     1       8.978   3.053   1.256  0.00  0.00    +0.000 A 
ATOM     30  C   UNL     1       7.875   2.290   1.524  0.00  0.00    +0.000 A 
ATOM     31  C   UNL     1       7.916   0.922   1.404  0.00  0.00    +0.000 A 
ENDBRANCH  25  26
ENDBRANCH  24  25
ENDBRANCH  21  24
ENDBRANCH   8  18
TORSDOF 5
