
 OpenBabel03132512083D

 43 46  0  0  0  0  0  0  0  0999 V2000
    0.9541    0.0345   -0.0819 C   0  0  0  0  0  0  0  0  0  0  0  0
    0.4807   -1.2582   -0.4302 O   0  0  0  0  0  0  0  0  0  0  0  0
    0.8238   -1.8253   -1.6860 C   0  0  0  0  0  0  0  0  0  0  0  0
   -0.2196   -2.3170   -2.4530 C   0  0  0  0  0  0  0  0  0  0  0  0
    0.1990   -3.0065   -3.6156 C   0  0  0  0  0  0  0  0  0  0  0  0
   -0.8060   -3.9226   -4.2948 C   0  0  0  0  0  0  0  0  0  0  0  0
   -1.9868   -3.4413   -4.8358 C   0  0  0  0  0  0  0  0  0  0  0  0
   -2.8991   -4.4546   -5.2138 C   0  0  0  0  0  0  0  0  0  0  0  0
   -4.2746   -4.0772   -5.4137 C   0  0  0  0  0  0  0  0  0  0  0  0
   -4.7023   -2.6319   -5.2178 C   0  0  0  0  0  0  0  0  0  0  0  0
   -5.9161   -2.2989   -5.3941 O   0  0  0  0  0  0  0  0  0  0  0  0
   -3.7457   -1.6536   -4.8377 O   0  0  0  0  0  0  0  0  0  0  0  0
   -5.2128   -5.0368   -5.7864 N   0  0  0  0  0  0  0  0  0  0  0  0
   -3.4242   -6.6065   -6.0600 N   0  0  0  0  0  0  0  0  0  0  0  0
   -2.5771   -5.7223   -5.3962 C   0  0  0  0  0  0  0  0  0  0  0  0
   -1.3674   -6.1201   -4.8984 C   0  0  0  0  0  0  0  0  0  0  0  0
   -0.4759   -5.2050   -4.3927 C   0  0  0  0  0  0  0  0  0  0  0  0
    1.1362   -5.7435   -3.8640 Cl  0  0  0  0  0  0  0  0  0  0  0  0
    1.4020   -2.9095   -4.1516 C   0  0  0  0  0  0  0  0  0  0  0  0
    2.3739   -2.3524   -3.3677 C   0  0  0  0  0  0  0  0  0  0  0  0
    2.0632   -1.7756   -2.1599 C   0  0  0  0  0  0  0  0  0  0  0  0
    3.1481   -1.0742   -1.3590 C   0  0  0  0  0  0  0  0  0  0  0  0
    3.2503   -1.7309   -0.1146 O   0  0  0  0  0  0  0  0  0  0  0  0
    3.2037    0.4554   -1.2001 C   0  0  0  0  0  0  0  0  0  0  0  0
    4.7386    0.4004   -1.2876 C   0  0  0  0  0  0  0  0  0  0  0  0
    4.6090   -0.9859   -1.9304 C   0  0  0  0  0  0  0  0  0  0  0  0
    0.5974    0.2942    0.8929 H   0  0  0  0  0  0  0  0  0  0  0  0
    0.5974    0.7488   -0.7942 H   0  0  0  0  0  0  0  0  0  0  0  0
    2.0241    0.0345   -0.0819 H   0  0  0  0  0  0  0  0  0  0  0  0
   -1.2486   -2.1872   -2.1903 H   0  0  0  0  0  0  0  0  0  0  0  0
   -2.1906   -2.3978   -4.9568 H   0  0  0  0  0  0  0  0  0  0  0  0
   -4.0271   -0.7027   -4.7088 H   0  0  0  0  0  0  0  0  0  0  0  0
   -3.1479   -7.5803   -6.1856 H   0  0  0  0  0  0  0  0  0  0  0  0
   -1.1113   -7.1590   -4.9026 H   0  0  0  0  0  0  0  0  0  0  0  0
    1.6052   -3.2487   -5.1458 H   0  0  0  0  0  0  0  0  0  0  0  0
    3.3910   -2.3658   -3.6995 H   0  0  0  0  0  0  0  0  0  0  0  0
    3.9587   -1.2909    0.4373 H   0  0  0  0  0  0  0  0  0  0  0  0
    2.6437    1.0911   -1.8538 H   0  0  0  0  0  0  0  0  0  0  0  0
    2.8309    0.8122   -0.2628 H   0  0  0  0  0  0  0  0  0  0  0  0
    5.3501    0.5570   -0.4237 H   0  0  0  0  0  0  0  0  0  0  0  0
    5.1730    1.1442   -1.9225 H   0  0  0  0  0  0  0  0  0  0  0  0
    5.3266   -1.7552   -1.7349 H   0  0  0  0  0  0  0  0  0  0  0  0
    4.6662   -0.9846   -2.9989 H   0  0  0  0  0  0  0  0  0  0  0  0
  1  2  1  0  0  0  0
  1 27  1  0  0  0  0
  1 28  1  0  0  0  0
  1 29  1  0  0  0  0
  2  3  1  0  0  0  0
  3  4  1  0  0  0  0
  3 21  2  0  0  0  0
  4  5  2  0  0  0  0
  4 30  1  0  0  0  0
  5  6  1  0  0  0  0
  5 19  1  0  0  0  0
  6  7  1  0  0  0  0
  6 17  2  0  0  0  0
  7  8  2  0  0  0  0
  7 31  1  0  0  0  0
  8  9  1  0  0  0  0
  8 15  1  0  0  0  0
  9 10  1  0  0  0  0
  9 13  2  0  0  0  0
 10 11  2  0  0  0  0
 10 12  1  0  0  0  0
 12 32  1  0  0  0  0
 13 14  1  0  0  0  0
 14 15  1  0  0  0  0
 14 33  1  0  0  0  0
 15 16  2  0  0  0  0
 16 17  1  0  0  0  0
 16 34  1  0  0  0  0
 17 18  1  0  0  0  0
 19 20  2  0  0  0  0
 19 35  1  0  0  0  0
 20 21  1  0  0  0  0
 20 36  1  0  0  0  0
 21 22  1  0  0  0  0
 22 23  1  0  0  0  0
 22 24  1  0  0  0  0
 22 26  1  0  0  0  0
 23 37  1  0  0  0  0
 24 25  1  0  0  0  0
 24 38  1  0  0  0  0
 24 39  1  0  0  0  0
 25 26  1  0  0  0  0
 25 40  1  0  0  0  0
 25 41  1  0  0  0  0
 26 42  1  0  0  0  0
 26 43  1  0  0  0  0
M  END
