REMARK  Name = 
REMARK  10 active torsions:
REMARK  status: ('A' for Active; 'I' for Inactive)
REMARK    1  A    between atoms: C_1  and  N_2
REMARK    2  A    between atoms: S_3  and  C_5
REMARK    3  A    between atoms: S_3  and  N_37
REMARK    4  A    between atoms: C_8  and  C_9
REMARK    5  A    between atoms: C_12  and  C_13
REMARK    6  A    between atoms: C_17  and  O_18
REMARK    7  A    between atoms: O_18  and  C_19
REMARK    8  A    between atoms: C_23  and  O_24
REMARK    9  A    between atoms: N_37  and  C_38
REMARK   10  A    between atoms: N_37  and  C_39
REMARK                            x       y       z     vdW  Elec       q    Type
REMARK                         _______ _______ _______ _____ _____    ______ ____
ROOT
ATOM      1  C   UNL     1      11.213  -3.572  -0.737  0.00  0.00    +0.000 A 
ATOM      2  N   UNL     1      11.904  -3.123  -1.845  0.00  0.00    +0.000 NA
ATOM      3  C   UNL     1      13.296  -3.250  -1.889  0.00  0.00    +0.000 A 
ATOM      4  N   UNL     1      14.313  -2.893  -2.876  0.00  0.00    +0.000 NA
ATOM      5  C   UNL     1      15.473  -3.240  -2.398  0.00  0.00    +0.000 A 
ATOM      6  N   UNL     1      15.320  -3.818  -1.134  0.00  0.00    +0.000 N 
ATOM      7  C   UNL     1      13.980  -3.831  -0.807  0.00  0.00    +0.000 A 
ATOM      8  C   UNL     1      13.267  -4.276   0.300  0.00  0.00    +0.000 A 
ATOM      9  C   UNL     1      11.897  -4.143   0.336  0.00  0.00    +0.000 A 
ATOM     10 CL   UNL     1      10.992  -4.702   1.763  0.00  0.00    +0.000 Cl
ATOM     11  H   UNL     1      16.077  -4.172  -0.549  0.00  0.00    +0.000 HD
ENDROOT
BRANCH   1  15
ATOM     12  C   UNL     1       6.977  -3.021  -0.735  0.00  0.00    +0.000 A 
ATOM     13  C   UNL     1       7.557  -3.709  -1.787  0.00  0.00    +0.000 A 
ATOM     14  C   UNL     1       8.921  -4.025  -1.583  0.00  0.00    +0.000 A 
ATOM     15  C   UNL     1       9.699  -3.444  -0.687  0.00  0.00    +0.000 A 
ATOM     16  C   UNL     1       9.069  -2.722   0.288  0.00  0.00    +0.000 A 
ATOM     17  C   UNL     1       7.717  -2.481   0.227  0.00  0.00    +0.000 A 
BRANCH  12  21
ATOM     18  C   UNL     1       2.724  -2.633  -0.814  0.00  0.00    +0.000 A 
ATOM     19  C   UNL     1       3.278  -3.901  -0.875  0.00  0.00    +0.000 A 
ATOM     20  C   UNL     1       4.670  -3.932  -0.622  0.00  0.00    +0.000 A 
ATOM     21  C   UNL     1       5.465  -2.880  -0.678  0.00  0.00    +0.000 A 
ATOM     22  C   UNL     1       4.855  -1.656  -0.683  0.00  0.00    +0.000 A 
ATOM     23  C   UNL     1       3.490  -1.548  -0.796  0.00  0.00    +0.000 A 
BRANCH  18  26
ATOM     24  C   UNL     1       1.034   0.049   0.080  0.00  0.00    +0.000 C 
ATOM     25  N   UNL     1       0.544  -1.323   0.276  0.00  0.00    +0.000 NA
ATOM     26  S   UNL     1       0.925  -2.450  -0.756  0.00  0.00    +0.000 S 
ATOM     27  O   UNL     1       0.406  -2.067  -2.144  0.00  0.00    +0.000 OA
BRANCH  26  28
ATOM     28  N   UNL     1       0.196  -3.973  -0.257  0.00  0.00    +0.000 NA
ATOM     29  C   UNL     1      -1.265  -3.824  -0.210  0.00  0.00    +0.000 C 
ATOM     30  C   UNL     1       0.551  -5.025  -1.221  0.00  0.00    +0.000 C 
ENDBRANCH  26  28
ENDBRANCH  18  26
ENDBRANCH  12  21
ENDBRANCH   1  15
BRANCH   5  31
ATOM     31  O   UNL     1      16.714  -3.058  -3.064  0.00  0.00    +0.000 OA
BRANCH  31  32
ATOM     32  C   UNL     1      16.748  -2.457  -4.350  0.00  0.00    +0.000 C 
ATOM     33  C   UNL     1      16.235  -1.217  -4.295  0.00  0.00    +0.000 C 
ATOM     34  O   UNL     1      14.797  -1.272  -4.503  0.00  0.00    +0.000 OA
ATOM     35  C   UNL     1      14.516  -2.578  -5.270  0.00  0.00    +0.000 C 
ATOM     36  C   UNL     1      14.202  -2.250  -6.715  0.00  0.00    +0.000 C 
ATOM     37  C   UNL     1      15.394  -2.114  -7.360  0.00  0.00    +0.000 C 
ATOM     38  O   UNL     1      16.387  -2.988  -6.756  0.00  0.00    +0.000 OA
ATOM     39  C   UNL     1      15.909  -3.266  -5.319  0.00  0.00    +0.000 C 
BRANCH  36  40
ATOM     40  O   UNL     1      13.435  -1.059  -6.810  0.00  0.00    +0.000 OA
ATOM     41  H   UNL     1      13.945  -0.301  -6.403  0.00  0.00    +0.000 HD
ENDBRANCH  36  40
ENDBRANCH  31  32
ENDBRANCH   5  31
TORSDOF 7
