
 OpenBabel03132514253D

 44 46  0  0  0  0  0  0  0  0999 V2000
    0.9234    0.0642    0.0031 C   0  0  0  0  0  0  0  0  0  0  0  0
    0.4501   -0.5194    1.2080 O   0  0  0  0  0  0  0  0  0  0  0  0
    0.7931   -1.8590    1.5307 C   0  0  0  0  0  0  0  0  0  0  0  0
   -0.1447   -2.7225    1.9326 N   0  0  0  0  0  0  0  0  0  0  0  0
    0.2260   -3.9962    2.1371 C   0  0  0  0  0  0  0  0  0  0  0  0
   -0.7875   -4.9646    2.5797 N   0  0  0  0  0  0  0  0  0  0  0  0
   -2.1762   -4.5308    2.7899 C   0  0  0  0  0  0  0  0  0  0  0  0
   -0.4123   -6.3668    2.8122 C   0  0  0  0  0  0  0  0  0  0  0  0
    0.1307   -6.9660    1.5251 C   0  0  0  0  0  0  0  0  0  0  0  0
    1.2731   -6.2334    1.1071 O   0  0  0  0  0  0  0  0  0  0  0  0
    1.5226   -4.4323    1.9479 C   0  0  0  0  0  0  0  0  0  0  0  0
    2.5030   -3.5203    1.5492 C   0  0  0  0  0  0  0  0  0  0  0  0
    2.1120   -2.2034    1.3426 C   0  0  0  0  0  0  0  0  0  0  0  0
    3.1277   -1.1568    0.9144 C   0  0  0  0  0  0  0  0  0  0  0  0
    3.3109   -0.0490    1.7266 C   0  0  0  0  0  0  0  0  0  0  0  0
    4.2278    0.9426    1.3341 C   0  0  0  0  0  0  0  0  0  0  0  0
    4.6121    2.2263    1.8619 C   0  0  0  0  0  0  0  0  0  0  0  0
    4.1507    2.8501    3.1690 C   0  0  0  0  0  0  0  0  0  0  0  0
    4.5754    3.9984    3.5099 O   0  0  0  0  0  0  0  0  0  0  0  0
    3.2452    2.1498    4.0092 O   0  0  0  0  0  0  0  0  0  0  0  0
    5.4802    2.7751    0.9466 C   0  0  0  0  0  0  0  0  0  0  0  0
    5.6949    1.9066   -0.0903 N   0  0  0  0  0  0  0  0  0  0  0  0
    4.9245    0.7840    0.1082 C   0  0  0  0  0  0  0  0  0  0  0  0
    4.7567   -0.3307   -0.7204 C   0  0  0  0  0  0  0  0  0  0  0  0
    3.8532   -1.2790   -0.2837 C   0  0  0  0  0  0  0  0  0  0  0  0
    3.5652   -2.6854   -1.2767 Cl  0  0  0  0  0  0  0  0  0  0  0  0
    0.5667    1.0703   -0.0700 H   0  0  0  0  0  0  0  0  0  0  0  0
    0.5667   -0.5022   -0.8317 H   0  0  0  0  0  0  0  0  0  0  0  0
    1.9934    0.0642    0.0031 H   0  0  0  0  0  0  0  0  0  0  0  0
   -2.8243   -5.0826    2.1415 H   0  0  0  0  0  0  0  0  0  0  0  0
   -2.4550   -4.7077    3.8077 H   0  0  0  0  0  0  0  0  0  0  0  0
   -2.2602   -3.4863    2.5734 H   0  0  0  0  0  0  0  0  0  0  0  0
    0.3392   -6.4136    3.5723 H   0  0  0  0  0  0  0  0  0  0  0  0
   -1.2731   -6.9188    3.1272 H   0  0  0  0  0  0  0  0  0  0  0  0
    0.4038   -7.9866    1.6943 H   0  0  0  0  0  0  0  0  0  0  0  0
   -0.6209   -6.9192    0.7650 H   0  0  0  0  0  0  0  0  0  0  0  0
    1.0179   -5.2796    0.9490 H   0  0  0  0  0  0  0  0  0  0  0  0
    1.7743   -5.4603    2.1054 H   0  0  0  0  0  0  0  0  0  0  0  0
    3.5188   -3.8253    1.4080 H   0  0  0  0  0  0  0  0  0  0  0  0
    2.7624    0.0506    2.6399 H   0  0  0  0  0  0  0  0  0  0  0  0
    2.9416    2.5602    4.8692 H   0  0  0  0  0  0  0  0  0  0  0  0
    5.9251    3.7444    1.0327 H   0  0  0  0  0  0  0  0  0  0  0  0
    6.3221    2.0655   -0.8789 H   0  0  0  0  0  0  0  0  0  0  0  0
    5.2964   -0.4418   -1.6376 H   0  0  0  0  0  0  0  0  0  0  0  0
  1  2  1  0  0  0  0
  1 27  1  0  0  0  0
  1 28  1  0  0  0  0
  1 29  1  0  0  0  0
  2  3  1  0  0  0  0
  3  4  1  0  0  0  0
  3 13  2  0  0  0  0
  4  5  2  0  0  0  0
  5  6  1  0  0  0  0
  5 11  1  0  0  0  0
  6  7  1  0  0  0  0
  6  8  1  0  0  0  0
  7 30  1  0  0  0  0
  7 31  1  0  0  0  0
  7 32  1  0  0  0  0
  8  9  1  0  0  0  0
  8 33  1  0  0  0  0
  8 34  1  0  0  0  0
  9 10  1  0  0  0  0
  9 35  1  0  0  0  0
  9 36  1  0  0  0  0
 10 37  1  0  0  0  0
 11 12  2  0  0  0  0
 11 38  1  0  0  0  0
 12 13  1  0  0  0  0
 12 39  1  0  0  0  0
 13 14  1  0  0  0  0
 14 15  1  0  0  0  0
 14 25  2  0  0  0  0
 15 16  2  0  0  0  0
 15 40  1  0  0  0  0
 16 17  1  0  0  0  0
 16 23  1  0  0  0  0
 17 18  1  0  0  0  0
 17 21  2  0  0  0  0
 18 19  2  0  0  0  0
 18 20  1  0  0  0  0
 20 41  1  0  0  0  0
 21 22  1  0  0  0  0
 21 42  1  0  0  0  0
 22 23  1  0  0  0  0
 22 43  1  0  0  0  0
 23 24  2  0  0  0  0
 24 25  1  0  0  0  0
 24 44  1  0  0  0  0
 25 26  1  0  0  0  0
M  END
