
 OpenBabel03132512093D

 62 66  0  0  0  0  0  0  0  0999 V2000
    0.9801   -0.0839   -0.0506 O   0  0  0  0  0  0  0  0  0  0  0  0
    2.2510   -0.0839   -0.0506 C   0  0  0  0  0  0  0  0  0  0  0  0
    3.0110    0.6737    1.0258 C   0  0  0  0  0  0  0  0  0  0  0  0
    4.1675    1.3772    0.7319 C   0  0  0  0  0  0  0  0  0  0  0  0
    4.9736    1.6527    1.8616 C   0  0  0  0  0  0  0  0  0  0  0  0
    4.5540    1.5976    3.1126 C   0  0  0  0  0  0  0  0  0  0  0  0
    5.3442    2.2225    4.2507 C   0  0  0  0  0  0  0  0  0  0  0  0
    5.7900    1.3974    5.2854 C   0  0  0  0  0  0  0  0  0  0  0  0
    6.5888    1.9215    6.2763 N   0  0  0  0  0  0  0  0  0  0  0  0
    6.9589    3.2623    6.2575 C   0  0  0  0  0  0  0  0  0  0  0  0
    6.5249    4.0806    5.2364 C   0  0  0  0  0  0  0  0  0  0  0  0
    5.7221    3.5634    4.2323 C   0  0  0  0  0  0  0  0  0  0  0  0
    6.8967    5.5385    5.1531 N   0  0  0  0  0  0  0  0  0  0  0  0
    6.7896    6.3613    3.9397 C   0  0  0  0  0  0  0  0  0  0  0  0
    7.6605    5.7660    2.8454 C   0  0  0  0  0  0  0  0  0  0  0  0
    8.7241    6.5289    2.3923 C   0  0  0  0  0  0  0  0  0  0  0  0
    9.3572    6.0035    1.2411 C   0  0  0  0  0  0  0  0  0  0  0  0
   10.3919    7.0981    0.2927 Cl  0  0  0  0  0  0  0  0  0  0  0  0
    9.2338    4.7574    0.8214 C   0  0  0  0  0  0  0  0  0  0  0  0
    8.2047    4.0342    1.3576 C   0  0  0  0  0  0  0  0  0  0  0  0
    7.4570    4.5328    2.3969 C   0  0  0  0  0  0  0  0  0  0  0  0
    6.3871    3.6649    3.0391 C   0  0  0  0  0  0  0  0  0  0  0  0
    5.4845    3.3238    2.1238 F   0  0  0  0  0  0  0  0  0  0  0  0
    6.9478    2.5675    3.5394 F   0  0  0  0  0  0  0  0  0  0  0  0
    5.7929    4.3439    4.0162 F   0  0  0  0  0  0  0  0  0  0  0  0
    7.3999    6.0428    6.5036 C   0  0  0  0  0  0  0  0  0  0  0  0
    8.4894    5.0863    7.0015 C   0  0  0  0  0  0  0  0  0  0  0  0
    7.8296    3.7618    7.3807 N   0  0  0  0  0  0  0  0  0  0  0  0
    3.3704    0.9481    3.3289 C   0  0  0  0  0  0  0  0  0  0  0  0
    2.5899    0.5325    2.2772 C   0  0  0  0  0  0  0  0  0  0  0  0
    2.9860   -0.8166   -1.0917 N   0  0  0  0  0  0  0  0  0  0  0  0
    4.1253   -1.7042   -0.8252 C   0  0  0  0  0  0  0  0  0  0  0  0
    5.3684   -1.1960   -1.5229 C   0  0  0  0  0  0  0  0  0  0  0  0
    5.1400   -1.0833   -3.0286 C   0  0  0  0  0  0  0  0  0  0  0  0
    3.8821   -0.2642   -3.3115 C   0  0  0  0  0  0  0  0  0  0  0  0
    2.7015   -0.8099   -2.5254 C   0  0  0  0  0  0  0  0  0  0  0  0
    4.4276    1.6843   -0.2595 H   0  0  0  0  0  0  0  0  0  0  0  0
    5.9943    1.9246    1.6905 H   0  0  0  0  0  0  0  0  0  0  0  0
    5.5122    0.3643    5.3078 H   0  0  0  0  0  0  0  0  0  0  0  0
    5.3902    4.1981    3.4374 H   0  0  0  0  0  0  0  0  0  0  0  0
    5.7711    6.3835    3.6125 H   0  0  0  0  0  0  0  0  0  0  0  0
    7.1172    7.3572    4.1540 H   0  0  0  0  0  0  0  0  0  0  0  0
    9.0384    7.4335    2.8695 H   0  0  0  0  0  0  0  0  0  0  0  0
    9.9032    4.3364    0.1006 H   0  0  0  0  0  0  0  0  0  0  0  0
    7.9784    3.0661    0.9621 H   0  0  0  0  0  0  0  0  0  0  0  0
    6.5936    6.0796    7.2062 H   0  0  0  0  0  0  0  0  0  0  0  0
    7.8055    7.0268    6.3937 H   0  0  0  0  0  0  0  0  0  0  0  0
    9.2188    4.9281    6.2349 H   0  0  0  0  0  0  0  0  0  0  0  0
    8.9757    5.5061    7.8572 H   0  0  0  0  0  0  0  0  0  0  0  0
    7.9605    3.2819    8.2713 H   0  0  0  0  0  0  0  0  0  0  0  0
    3.0473    0.7609    4.3316 H   0  0  0  0  0  0  0  0  0  0  0  0
    1.6341    0.0911    2.4683 H   0  0  0  0  0  0  0  0  0  0  0  0
    3.8961   -2.6817   -1.1954 H   0  0  0  0  0  0  0  0  0  0  0  0
    4.3036   -1.7413    0.2292 H   0  0  0  0  0  0  0  0  0  0  0  0
    6.1656   -1.8881   -1.3486 H   0  0  0  0  0  0  0  0  0  0  0  0
    5.6193   -0.2315   -1.1334 H   0  0  0  0  0  0  0  0  0  0  0  0
    5.9818   -0.5955   -3.4738 H   0  0  0  0  0  0  0  0  0  0  0  0
    5.0244   -2.0631   -3.4428 H   0  0  0  0  0  0  0  0  0  0  0  0
    4.0558    0.7491   -3.0148 H   0  0  0  0  0  0  0  0  0  0  0  0
    3.6600   -0.3103   -4.3572 H   0  0  0  0  0  0  0  0  0  0  0  0
    1.8539   -0.1812   -2.7022 H   0  0  0  0  0  0  0  0  0  0  0  0
    2.4992   -1.8102   -2.8469 H   0  0  0  0  0  0  0  0  0  0  0  0
  1  2  2  0  0  0  0
  2  3  1  0  0  0  0
  2 31  1  0  0  0  0
  3  4  1  0  0  0  0
  3 30  2  0  0  0  0
  4  5  2  0  0  0  0
  4 37  1  0  0  0  0
  5  6  1  0  0  0  0
  5 38  1  0  0  0  0
  6  7  1  0  0  0  0
  6 29  2  0  0  0  0
  7  8  1  0  0  0  0
  7 12  2  0  0  0  0
  8  9  2  0  0  0  0
  8 39  1  0  0  0  0
  9 10  1  0  0  0  0
 10 11  2  0  0  0  0
 10 28  1  0  0  0  0
 11 12  1  0  0  0  0
 11 13  1  0  0  0  0
 12 40  1  0  0  0  0
 13 14  1  0  0  0  0
 13 26  1  0  0  0  0
 14 15  1  0  0  0  0
 14 41  1  0  0  0  0
 14 42  1  0  0  0  0
 15 16  1  0  0  0  0
 15 21  2  0  0  0  0
 16 17  2  0  0  0  0
 16 43  1  0  0  0  0
 17 18  1  0  0  0  0
 17 19  1  0  0  0  0
 19 20  2  0  0  0  0
 19 44  1  0  0  0  0
 20 21  1  0  0  0  0
 20 45  1  0  0  0  0
 21 22  1  0  0  0  0
 22 23  1  0  0  0  0
 22 24  1  0  0  0  0
 22 25  1  0  0  0  0
 26 27  1  0  0  0  0
 26 46  1  0  0  0  0
 26 47  1  0  0  0  0
 27 28  1  0  0  0  0
 27 48  1  0  0  0  0
 27 49  1  0  0  0  0
 28 50  1  0  0  0  0
 29 30  1  0  0  0  0
 29 51  1  0  0  0  0
 30 52  1  0  0  0  0
 31 32  1  0  0  0  0
 31 36  1  0  0  0  0
 32 33  1  0  0  0  0
 32 53  1  0  0  0  0
 32 54  1  0  0  0  0
 33 34  1  0  0  0  0
 33 55  1  0  0  0  0
 33 56  1  0  0  0  0
 34 35  1  0  0  0  0
 34 57  1  0  0  0  0
 34 58  1  0  0  0  0
 35 36  1  0  0  0  0
 35 59  1  0  0  0  0
 35 60  1  0  0  0  0
 36 61  1  0  0  0  0
 36 62  1  0  0  0  0
M  END
