REMARK  Name = 
REMARK  8 active torsions:
REMARK  status: ('A' for Active; 'I' for Inactive)
REMARK    1  A    between atoms: C_1  and  C_2
REMARK    2  A    between atoms: C_9  and  C_10
REMARK    3  A    between atoms: C_11  and  C_12
REMARK    4  A    between atoms: C_17  and  N_18
REMARK    5  A    between atoms: N_18  and  C_19
REMARK    6  A    between atoms: C_22  and  O_23
REMARK    7  A    between atoms: O_23  and  C_24
REMARK    8  A    between atoms: C_24  and  C_25
REMARK                            x       y       z     vdW  Elec       q    Type
REMARK                         _______ _______ _______ _____ _____    ______ ____
ROOT
ATOM      1  C   UNL     1       7.481   2.362  -0.405  0.00  0.00    +0.000 A 
ATOM      2  C   UNL     1       8.093   3.566  -0.119  0.00  0.00    +0.000 A 
ATOM      3  N   UNL     1       9.297   3.599   0.429  0.00  0.00    +0.000 NA
ATOM      4  C   UNL     1       9.954   2.491   0.728  0.00  0.00    +0.000 A 
ATOM      5  N   UNL     1       9.401   1.251   0.469  0.00  0.00    +0.000 NA
ATOM      6  C   UNL     1       8.143   1.179  -0.111  0.00  0.00    +0.000 A 
ENDROOT
BRANCH   1   8
ATOM      7  C   UNL     1       4.911   2.308  -1.575  0.00  0.00    +0.000 C 
ATOM      8  C   UNL     1       6.098   2.333  -1.035  0.00  0.00    +0.000 C 
BRANCH   7  17
ATOM      9  C   UNL     1       0.943   0.072  -0.040  0.00  0.00    +0.000 C 
ATOM     10  C   UNL     1       0.436  -0.675  -1.263  0.00  0.00    +0.000 C 
ATOM     11  O   UNL     1      -0.295  -1.705  -1.121  0.00  0.00    +0.000 OA
ATOM     12  N   UNL     1       0.791  -0.205  -2.610  0.00  0.00    +0.000 N 
ATOM     13  C   UNL     1       1.636   0.986  -2.774  0.00  0.00    +0.000 A 
ATOM     14  C   UNL     1       1.313   1.968  -3.704  0.00  0.00    +0.000 A 
ATOM     15  C   UNL     1       1.836   3.259  -3.466  0.00  0.00    +0.000 A 
ATOM     16  C   UNL     1       3.107   3.316  -2.897  0.00  0.00    +0.000 A 
ATOM     17  C   UNL     1       3.528   2.279  -2.205  0.00  0.00    +0.000 A 
ATOM     18  N   UNL     1       2.718   1.149  -2.043  0.00  0.00    +0.000 NA
ATOM     19  H   UNL     1       0.451  -0.707  -3.430  0.00  0.00    +0.000 HD
ENDBRANCH   7  17
ENDBRANCH   1   8
BRANCH   6  20
ATOM     20  N   UNL     1       7.526  -0.121  -0.406  0.00  0.00    +0.000 N 
ATOM     21  H   UNL     1       6.600  -0.161  -0.833  0.00  0.00    +0.000 HD
BRANCH  20  22
ATOM     22  C   UNL     1       8.242  -1.365  -0.087  0.00  0.00    +0.000 A 
ATOM     23  C   UNL     1       8.611  -1.670   1.158  0.00  0.00    +0.000 A 
ATOM     24  C   UNL     1       9.292  -2.897   1.391  0.00  0.00    +0.000 A 
ATOM     25  C   UNL     1       9.823  -3.608   0.303  0.00  0.00    +0.000 A 
ATOM     26  C   UNL     1       9.465  -3.303  -0.910  0.00  0.00    +0.000 A 
ATOM     27 CL   UNL     1      10.149  -4.197  -2.289  0.00  0.00    +0.000 Cl
ATOM     28  C   UNL     1       8.543  -2.272  -1.132  0.00  0.00    +0.000 A 
BRANCH  25  29
ATOM     29  O   UNL     1      10.749  -4.660   0.527  0.00  0.00    +0.000 OA
BRANCH  29  30
ATOM     30  C   UNL     1      11.140  -4.993   1.851  0.00  0.00    +0.000 C 
BRANCH  30  31
ATOM     31  C   UNL     1      11.790  -3.786   2.506  0.00  0.00    +0.000 A 
ATOM     32  C   UNL     1      11.213  -2.604   2.278  0.00  0.00    +0.000 A 
ATOM     33  C   UNL     1      11.726  -1.452   2.936  0.00  0.00    +0.000 A 
ATOM     34  C   UNL     1      12.982  -1.517   3.561  0.00  0.00    +0.000 A 
ATOM     35  C   UNL     1      13.544  -2.670   3.775  0.00  0.00    +0.000 A 
ATOM     36  F   UNL     1      14.738  -2.730   4.358  0.00  0.00    +0.000 F 
ATOM     37  C   UNL     1      12.892  -3.850   3.393  0.00  0.00    +0.000 A 
ENDBRANCH  30  31
ENDBRANCH  29  30
ENDBRANCH  25  29
ENDBRANCH  20  22
ENDBRANCH   6  20
TORSDOF 7
