REMARK  Name = 
REMARK  8 active torsions:
REMARK  status: ('A' for Active; 'I' for Inactive)
REMARK    1  A    between atoms: C_1  and  N_2
REMARK    2  A    between atoms: N_2  and  C_3
REMARK    3  A    between atoms: N_2  and  S_4
REMARK    4  A    between atoms: S_4  and  N_7
REMARK    5  A    between atoms: N_7  and  C_8
REMARK    6  A    between atoms: C_13  and  N_14
REMARK    7  A    between atoms: N_14  and  C_15
REMARK    8  A    between atoms: C_20  and  C_21
REMARK                            x       y       z     vdW  Elec       q    Type
REMARK                         _______ _______ _______ _____ _____    ______ ____
ROOT
ATOM      1  N   UNL     1      -0.739   7.082  -3.022  0.00  0.00    +0.000 N 
ATOM      2  H   UNL     1      -1.349   7.301  -3.810  0.00  0.00    +0.000 HD
ENDROOT
BRANCH   1   8
ATOM      3  C   UNL     1      -0.397   4.402  -0.356  0.00  0.00    +0.000 A 
ATOM      4  C   UNL     1      -1.444   3.560  -0.687  0.00  0.00    +0.000 A 
ATOM      5  C   UNL     1      -2.282   3.855  -1.748  0.00  0.00    +0.000 A 
ATOM      6  C   UNL     1      -2.034   5.002  -2.474  0.00  0.00    +0.000 A 
ATOM      7  F   UNL     1      -2.866   5.293  -3.502  0.00  0.00    +0.000 F 
ATOM      8  C   UNL     1      -0.985   5.880  -2.214  0.00  0.00    +0.000 A 
ATOM      9  C   UNL     1      -0.187   5.528  -1.129  0.00  0.00    +0.000 A 
ATOM     10  F   UNL     1       0.865   6.325  -0.832  0.00  0.00    +0.000 F 
BRANCH   3  11
ATOM     11  N   UNL     1       0.449   4.117   0.812  0.00  0.00    +0.000 N 
ATOM     12  H   UNL     1       0.695   4.866   1.458  0.00  0.00    +0.000 HD
BRANCH  11  13
ATOM     13  S   UNL     1       1.035   2.482   1.095  0.00  0.00    +0.000 S 
ATOM     14  O   UNL     1       0.525   1.984   2.450  0.00  0.00    +0.000 OA
ATOM     15  O   UNL     1       2.566   2.482   1.095  0.00  0.00    +0.000 OA
BRANCH  13  17
ATOM     16  C   UNL     1       0.939   0.053   0.058  0.00  0.00    +0.000 C 
ATOM     17  N   UNL     1       0.449   1.419  -0.179  0.00  0.00    +0.000 NA
ATOM     18  C   UNL     1      -1.021   1.419  -0.179  0.00  0.00    +0.000 C 
ENDBRANCH  13  17
ENDBRANCH  11  13
ENDBRANCH   3  11
ENDBRANCH   1   8
BRANCH   1  19
ATOM     19  C   UNL     1       0.387   7.970  -2.696  0.00  0.00    +0.000 A 
ATOM     20  N   UNL     1       0.099   9.236  -2.379  0.00  0.00    +0.000 NA
ATOM     21  C   UNL     1       1.119  10.043  -2.045  0.00  0.00    +0.000 A 
ATOM     22  C   UNL     1       2.430   9.611  -2.019  0.00  0.00    +0.000 A 
ATOM     23  C   UNL     1       2.727   8.293  -2.373  0.00  0.00    +0.000 A 
ATOM     24  C   UNL     1       1.667   7.465  -2.720  0.00  0.00    +0.000 A 
BRANCH  24  25
ATOM     25  C   UNL     1       1.918   6.021  -3.122  0.00  0.00    +0.000 A 
ATOM     26  N   UNL     1       2.502   5.204  -2.250  0.00  0.00    +0.000 NA
ATOM     27  C   UNL     1       2.635   3.908  -2.560  0.00  0.00    +0.000 A 
ATOM     28  N   UNL     1       2.264   3.277  -3.660  0.00  0.00    +0.000 NA
ATOM     29  C   UNL     1       1.680   4.107  -4.536  0.00  0.00    +0.000 A 
ATOM     30  N   UNL     1       1.137   3.729  -5.742  0.00  0.00    +0.000 NA
ATOM     31  C   UNL     1       0.626   4.838  -6.228  0.00  0.00    +0.000 A 
ATOM     32  N   UNL     1       0.795   5.907  -5.446  0.00  0.00    +0.000 N 
ATOM     33  C   UNL     1       1.485   5.480  -4.330  0.00  0.00    +0.000 A 
ATOM     34  H   UNL     1       0.475   6.857  -5.636  0.00  0.00    +0.000 HD
ENDBRANCH  24  25
ENDBRANCH   1  19
TORSDOF 6
