REMARK  Name = 
REMARK  3 active torsions:
REMARK  status: ('A' for Active; 'I' for Inactive)
REMARK    1  A    between atoms: C_1  and  C_2
REMARK    2  A    between atoms: C_2  and  N_3
REMARK    3  A    between atoms: C_4  and  C_5
REMARK                            x       y       z     vdW  Elec       q    Type
REMARK                         _______ _______ _______ _____ _____    ______ ____
ROOT
ATOM      1  N   UNL     1       0.926  -2.378  -0.245  0.00  0.00    +0.000 N 
ATOM      2  C   UNL     1       1.780  -2.593   0.735  0.00  0.00    +0.000 A 
ATOM      3  N   UNL     1       1.869  -3.889   0.996  0.00  0.00    +0.000 NA
ATOM      4  C   UNL     1       1.055  -4.547   0.172  0.00  0.00    +0.000 A 
ATOM      5  C   UNL     1       0.722  -5.903  -0.028  0.00  0.00    +0.000 A 
ATOM      6  N   UNL     1      -0.174  -6.231  -0.984  0.00  0.00    +0.000 NA
ATOM      7  C   UNL     1      -0.760  -5.285  -1.765  0.00  0.00    +0.000 A 
ATOM      8  C   UNL     1      -0.484  -3.970  -1.615  0.00  0.00    +0.000 A 
ATOM      9  C   UNL     1       0.433  -3.561  -0.645  0.00  0.00    +0.000 A 
ENDROOT
BRANCH   2  10
ATOM     10  C   UNL     1       2.554  -1.507   1.464  0.00  0.00    +0.000 A 
ATOM     11  N   UNL     1       4.322  -1.279   1.394  0.00  0.00    +0.000 NA
ATOM     12  O   UNL     1       4.433   0.185   2.317  0.00  0.00    +0.000 OA
ATOM     13  N   UNL     1       3.138   0.446   2.643  0.00  0.00    +0.000 NA
ATOM     14  C   UNL     1       2.154  -0.407   2.210  0.00  0.00    +0.000 A 
ATOM     15  N   UNL     1       0.738  -0.165   2.523  0.00  0.00    +0.000 N 
ATOM     16  H   UNL     1       0.469   0.650   3.073  0.00  0.00    +0.000 HD
ATOM     17  H   UNL     1       0.024  -0.814   2.190  0.00  0.00    +0.000 HD
ENDBRANCH   2  10
BRANCH   1  19
ATOM     18  C   UNL     1       0.943   0.043   0.070  0.00  0.00    +0.000 C 
ATOM     19  C   UNL     1       0.436  -1.103  -0.790  0.00  0.00    +0.000 C 
ENDBRANCH   1  19
TORSDOF 2
