REMARK  Name = 
REMARK  10 active torsions:
REMARK  status: ('A' for Active; 'I' for Inactive)
REMARK    1  A    between atoms: C_1  and  C_2
REMARK    2  A    between atoms: C_2  and  N_3
REMARK    3  A    between atoms: N_3  and  C_4
REMARK    4  A    between atoms: N_3  and  C_6
REMARK    5  A    between atoms: C_4  and  C_5
REMARK    6  A    between atoms: C_9  and  C_10
REMARK    7  A    between atoms: C_13  and  C_14
REMARK    8  A    between atoms: C_18  and  O_19
REMARK    9  A    between atoms: O_19  and  C_20
REMARK   10  A    between atoms: C_24  and  O_25
REMARK                            x       y       z     vdW  Elec       q    Type
REMARK                         _______ _______ _______ _____ _____    ______ ____
ROOT
ATOM      1  C   UNL     1      10.719   2.586  -3.605  0.00  0.00    +0.000 A 
ATOM      2  N   UNL     1      11.588   2.631  -2.534  0.00  0.00    +0.000 NA
ATOM      3  C   UNL     1      12.965   2.714  -2.764  0.00  0.00    +0.000 A 
ATOM      4  N   UNL     1      14.136   2.780  -1.891  0.00  0.00    +0.000 NA
ATOM      5  C   UNL     1      15.194   2.845  -2.644  0.00  0.00    +0.000 A 
ATOM      6  N   UNL     1      14.827   2.829  -3.994  0.00  0.00    +0.000 N 
ATOM      7  C   UNL     1      13.452   2.749  -4.083  0.00  0.00    +0.000 A 
ATOM      8  C   UNL     1      12.562   2.701  -5.149  0.00  0.00    +0.000 A 
ATOM      9  C   UNL     1      11.208   2.614  -4.911  0.00  0.00    +0.000 A 
ATOM     10 CL   UNL     1      10.074   2.539  -6.281  0.00  0.00    +0.000 Cl
ATOM     11  H   UNL     1      15.471   2.870  -4.783  0.00  0.00    +0.000 HD
ENDROOT
BRANCH   1  15
ATOM     12  C   UNL     1       6.556   2.240  -2.714  0.00  0.00    +0.000 A 
ATOM     13  C   UNL     1       7.269   3.293  -2.164  0.00  0.00    +0.000 A 
ATOM     14  C   UNL     1       8.573   3.441  -2.693  0.00  0.00    +0.000 A 
ATOM     15  C   UNL     1       9.221   2.504  -3.360  0.00  0.00    +0.000 A 
ATOM     16  C   UNL     1       8.472   1.456  -3.819  0.00  0.00    +0.000 A 
ATOM     17  C   UNL     1       7.155   1.314  -3.452  0.00  0.00    +0.000 A 
BRANCH  12  21
ATOM     18  C   UNL     1       2.383   2.080  -1.816  0.00  0.00    +0.000 A 
ATOM     19  C   UNL     1       2.895   3.230  -2.393  0.00  0.00    +0.000 A 
ATOM     20  C   UNL     1       4.229   3.099  -2.848  0.00  0.00    +0.000 A 
ATOM     21  C   UNL     1       5.059   2.144  -2.469  0.00  0.00    +0.000 A 
ATOM     22  C   UNL     1       4.499   1.065  -1.843  0.00  0.00    +0.000 A 
ATOM     23  C   UNL     1       3.173   1.065  -1.484  0.00  0.00    +0.000 A 
BRANCH  18  24
ATOM     24  N   UNL     1       0.938   1.980  -1.567  0.00  0.00    +0.000 N 
BRANCH  24  26
ATOM     25  C   UNL     1       0.955   0.046  -0.076  0.00  0.00    +0.000 C 
ATOM     26  C   UNL     1       0.448   1.465  -0.280  0.00  0.00    +0.000 C 
ENDBRANCH  24  26
BRANCH  24  27
ATOM     27  C   UNL     1      -0.017   2.395  -2.604  0.00  0.00    +0.000 C 
ATOM     28  C   UNL     1       0.198   3.864  -2.932  0.00  0.00    +0.000 C 
ENDBRANCH  24  27
ENDBRANCH  18  24
ENDBRANCH  12  21
ENDBRANCH   1  15
BRANCH   5  29
ATOM     29  O   UNL     1      16.529   2.922  -2.166  0.00  0.00    +0.000 OA
BRANCH  29  30
ATOM     30  C   UNL     1      16.783   2.931  -0.769  0.00  0.00    +0.000 C 
ATOM     31  C   UNL     1      16.308   1.805  -0.212  0.00  0.00    +0.000 C 
ATOM     32  O   UNL     1      14.917   1.995   0.167  0.00  0.00    +0.000 OA
ATOM     33  C   UNL     1      14.713   3.513   0.335  0.00  0.00    +0.000 C 
ATOM     34  C   UNL     1      14.631   3.844   1.811  0.00  0.00    +0.000 C 
ATOM     35  C   UNL     1      15.910   3.953   2.265  0.00  0.00    +0.000 C 
ATOM     36  O   UNL     1      16.773   4.451   1.204  0.00  0.00    +0.000 OA
ATOM     37  C   UNL     1      16.074   4.106  -0.125  0.00  0.00    +0.000 C 
BRANCH  34  38
ATOM     38  O   UNL     1      13.927   2.835   2.519  0.00  0.00    +0.000 OA
ATOM     39  H   UNL     1      14.394   1.958   2.403  0.00  0.00    +0.000 HD
ENDBRANCH  34  38
ENDBRANCH  29  30
ENDBRANCH   5  29
TORSDOF 8
