
 OpenBabel03132514253D

 47 50  0  0  0  0  0  0  0  0999 V2000
    0.9592    0.0652   -0.0639 O   0  0  0  0  0  0  0  0  0  0  0  0
    2.2301    0.0652   -0.0639 C   0  0  0  0  0  0  0  0  0  0  0  0
    2.9401    1.2454    0.2818 O   0  0  0  0  0  0  0  0  0  0  0  0
    2.9901   -1.1981   -0.4339 C   0  0  0  0  0  0  0  0  0  0  0  0
    4.0995   -1.7456    0.1679 C   0  0  0  0  0  0  0  0  0  0  0  0
    4.4725   -2.8972   -0.4726 N   0  0  0  0  0  0  0  0  0  0  0  0
    3.6335   -3.0969   -1.5447 C   0  0  0  0  0  0  0  0  0  0  0  0
    3.6755   -4.0926   -2.5266 C   0  0  0  0  0  0  0  0  0  0  0  0
    2.7321   -3.9938   -3.5298 C   0  0  0  0  0  0  0  0  0  0  0  0
    2.7382   -5.1813   -4.8091 Cl  0  0  0  0  0  0  0  0  0  0  0  0
    1.7773   -2.9635   -3.5897 C   0  0  0  0  0  0  0  0  0  0  0  0
    0.7793   -2.9187   -4.7352 C   0  0  0  0  0  0  0  0  0  0  0  0
    0.7540   -1.8147   -5.5715 C   0  0  0  0  0  0  0  0  0  0  0  0
   -0.3888   -1.7518   -6.4034 C   0  0  0  0  0  0  0  0  0  0  0  0
   -1.1839   -2.7740   -6.6623 C   0  0  0  0  0  0  0  0  0  0  0  0
   -2.1143   -2.7453   -7.7347 O   0  0  0  0  0  0  0  0  0  0  0  0
   -2.9511   -3.8662   -7.9788 C   0  0  0  0  0  0  0  0  0  0  0  0
   -2.0921   -5.0858   -8.2706 C   0  0  0  0  0  0  0  0  0  0  0  0
   -1.1969   -5.3724   -7.0761 C   0  0  0  0  0  0  0  0  0  0  0  0
   -2.0564   -5.6394   -5.8512 C   0  0  0  0  0  0  0  0  0  0  0  0
   -1.6758   -6.9103   -5.0722 C   0  0  0  0  0  0  0  0  0  0  0  0
   -1.9548   -6.1122   -3.7884 O   0  0  0  0  0  0  0  0  0  0  0  0
   -1.6441   -4.8433   -4.5993 C   0  0  0  0  0  0  0  0  0  0  0  0
   -1.0631   -3.8614   -5.8424 C   0  0  0  0  0  0  0  0  0  0  0  0
   -0.0514   -3.9387   -4.9158 C   0  0  0  0  0  0  0  0  0  0  0  0
    1.7455   -1.9888   -2.6050 C   0  0  0  0  0  0  0  0  0  0  0  0
    2.6778   -2.0481   -1.5538 C   0  0  0  0  0  0  0  0  0  0  0  0
    3.9401    1.2454    0.2818 H   0  0  0  0  0  0  0  0  0  0  0  0
    4.6005   -1.3300    1.0171 H   0  0  0  0  0  0  0  0  0  0  0  0
    5.2443   -3.5059   -0.2001 H   0  0  0  0  0  0  0  0  0  0  0  0
    4.3959   -4.8835   -2.5016 H   0  0  0  0  0  0  0  0  0  0  0  0
    1.5284   -1.0765   -5.5870 H   0  0  0  0  0  0  0  0  0  0  0  0
   -0.6252   -0.8106   -6.8541 H   0  0  0  0  0  0  0  0  0  0  0  0
   -3.5562   -4.0541   -7.1166 H   0  0  0  0  0  0  0  0  0  0  0  0
   -3.5813   -3.6644   -8.8197 H   0  0  0  0  0  0  0  0  0  0  0  0
   -2.7227   -5.9304   -8.4545 H   0  0  0  0  0  0  0  0  0  0  0  0
   -1.4870   -4.8979   -9.1328 H   0  0  0  0  0  0  0  0  0  0  0  0
   -0.5922   -6.2310   -7.2814 H   0  0  0  0  0  0  0  0  0  0  0  0
   -0.5663   -4.5278   -6.8921 H   0  0  0  0  0  0  0  0  0  0  0  0
   -3.0169   -5.5208   -6.3076 H   0  0  0  0  0  0  0  0  0  0  0  0
   -2.1422   -7.8538   -5.2651 H   0  0  0  0  0  0  0  0  0  0  0  0
   -0.6595   -7.2224   -5.1936 H   0  0  0  0  0  0  0  0  0  0  0  0
   -0.7005   -4.3436   -4.5307 H   0  0  0  0  0  0  0  0  0  0  0  0
   -2.2696   -4.0044   -4.3757 H   0  0  0  0  0  0  0  0  0  0  0  0
   -1.7664   -4.6637   -5.9234 H   0  0  0  0  0  0  0  0  0  0  0  0
    0.0681   -4.8291   -4.3344 H   0  0  0  0  0  0  0  0  0  0  0  0
    1.0215   -1.2019   -2.6441 H   0  0  0  0  0  0  0  0  0  0  0  0
  1  2  2  0  0  0  0
  2  3  1  0  0  0  0
  2  4  1  0  0  0  0
  3 28  1  0  0  0  0
  4  5  2  0  0  0  0
  4 27  1  0  0  0  0
  5  6  1  0  0  0  0
  5 29  1  0  0  0  0
  6  7  1  0  0  0  0
  6 30  1  0  0  0  0
  7  8  1  0  0  0  0
  7 27  2  0  0  0  0
  8  9  2  0  0  0  0
  8 31  1  0  0  0  0
  9 10  1  0  0  0  0
  9 11  1  0  0  0  0
 11 12  1  0  0  0  0
 11 26  2  0  0  0  0
 12 13  1  0  0  0  0
 12 25  2  0  0  0  0
 13 14  2  0  0  0  0
 13 32  1  0  0  0  0
 14 15  1  0  0  0  0
 14 33  1  0  0  0  0
 15 16  1  0  0  0  0
 15 24  2  0  0  0  0
 16 17  1  0  0  0  0
 17 18  1  0  0  0  0
 17 34  1  0  0  0  0
 17 35  1  0  0  0  0
 18 19  1  0  0  0  0
 18 36  1  0  0  0  0
 18 37  1  0  0  0  0
 19 20  1  0  0  0  0
 19 38  1  0  0  0  0
 19 39  1  0  0  0  0
 20 21  1  0  0  0  0
 20 23  1  0  0  0  0
 20 40  1  0  0  0  0
 21 22  1  0  0  0  0
 21 41  1  0  0  0  0
 21 42  1  0  0  0  0
 22 23  1  0  0  0  0
 23 43  1  0  0  0  0
 23 44  1  0  0  0  0
 24 25  1  0  0  0  0
 24 45  1  0  0  0  0
 25 46  1  0  0  0  0
 26 27  1  0  0  0  0
 26 47  1  0  0  0  0
M  END
