
 OpenBabel03132512093D

 33 35  0  0  0  0  0  0  0  0999 V2000
    0.9193   -0.0178   -0.0563 C   0  0  0  0  0  0  0  0  0  0  0  0
    0.4126   -1.2162   -0.8420 C   0  0  0  0  0  0  0  0  0  0  0  0
    0.9193   -2.4959   -0.1970 C   0  0  0  0  0  0  0  0  0  0  0  0
    1.7466   -2.5256    0.8703 N   0  0  0  0  0  0  0  0  0  0  0  0
    2.0782   -3.6935    1.4812 C   0  0  0  0  0  0  0  0  0  0  0  0
    1.5874   -4.8800    1.0587 C   0  0  0  0  0  0  0  0  0  0  0  0
    0.7257   -4.9217   -0.0391 C   0  0  0  0  0  0  0  0  0  0  0  0
    0.3790   -3.7032   -0.6874 C   0  0  0  0  0  0  0  0  0  0  0  0
   -0.4412   -4.0314   -1.6845 N   0  0  0  0  0  0  0  0  0  0  0  0
   -0.6097   -5.3456   -1.6795 C   0  0  0  0  0  0  0  0  0  0  0  0
   -1.4792   -6.1114   -2.6634 C   0  0  0  0  0  0  0  0  0  0  0  0
   -1.3976   -6.0182   -4.4430 N   0  0  0  0  0  0  0  0  0  0  0  0
   -2.7684   -7.0104   -4.8197 O   0  0  0  0  0  0  0  0  0  0  0  0
   -3.2354   -7.3734   -3.5947 N   0  0  0  0  0  0  0  0  0  0  0  0
   -2.5852   -6.9282   -2.4713 C   0  0  0  0  0  0  0  0  0  0  0  0
   -3.0398   -7.2998   -1.1237 N   0  0  0  0  0  0  0  0  0  0  0  0
    0.0820   -5.8957   -0.7025 N   0  0  0  0  0  0  0  0  0  0  0  0
    0.1393   -7.3313   -0.3915 C   0  0  0  0  0  0  0  0  0  0  0  0
   -1.2579   -7.8364   -0.0705 C   0  0  0  0  0  0  0  0  0  0  0  0
    0.5626   -0.0749    0.9509 H   0  0  0  0  0  0  0  0  0  0  0  0
    0.5626    0.8831   -0.5103 H   0  0  0  0  0  0  0  0  0  0  0  0
    1.9893   -0.0178   -0.0563 H   0  0  0  0  0  0  0  0  0  0  0  0
   -0.6574   -1.2162   -0.8420 H   0  0  0  0  0  0  0  0  0  0  0  0
    0.7693   -1.1590   -1.8492 H   0  0  0  0  0  0  0  0  0  0  0  0
    2.7448   -3.6732    2.3180 H   0  0  0  0  0  0  0  0  0  0  0  0
    1.8582   -5.7836    1.5636 H   0  0  0  0  0  0  0  0  0  0  0  0
   -3.8554   -7.9014   -1.0084 H   0  0  0  0  0  0  0  0  0  0  0  0
   -2.5396   -6.9561   -0.3038 H   0  0  0  0  0  0  0  0  0  0  0  0
    0.5260   -7.8638   -1.2352 H   0  0  0  0  0  0  0  0  0  0  0  0
    0.7780   -7.4882    0.4525 H   0  0  0  0  0  0  0  0  0  0  0  0
   -1.8965   -7.6795   -0.9146 H   0  0  0  0  0  0  0  0  0  0  0  0
   -1.2162   -8.8813    0.1558 H   0  0  0  0  0  0  0  0  0  0  0  0
   -1.6446   -7.3039    0.7732 H   0  0  0  0  0  0  0  0  0  0  0  0
  1  2  1  0  0  0  0
  1 20  1  0  0  0  0
  1 21  1  0  0  0  0
  1 22  1  0  0  0  0
  2  3  1  0  0  0  0
  2 23  1  0  0  0  0
  2 24  1  0  0  0  0
  3  4  1  0  0  0  0
  3  8  2  0  0  0  0
  4  5  2  0  0  0  0
  5  6  1  0  0  0  0
  5 25  1  0  0  0  0
  6  7  2  0  0  0  0
  6 26  1  0  0  0  0
  7  8  1  0  0  0  0
  7 17  1  0  0  0  0
  8  9  1  0  0  0  0
  9 10  2  0  0  0  0
 10 11  1  0  0  0  0
 10 17  1  0  0  0  0
 11 12  2  0  0  0  0
 11 15  1  0  0  0  0
 12 13  1  0  0  0  0
 13 14  1  0  0  0  0
 14 15  2  0  0  0  0
 15 16  1  0  0  0  0
 16 27  1  0  0  0  0
 16 28  1  0  0  0  0
 17 18  1  0  0  0  0
 18 19  1  0  0  0  0
 18 29  1  0  0  0  0
 18 30  1  0  0  0  0
 19 31  1  0  0  0  0
 19 32  1  0  0  0  0
 19 33  1  0  0  0  0
M  END
