REMARK  Name = 
REMARK  12 active torsions:
REMARK  status: ('A' for Active; 'I' for Inactive)
REMARK    1  A    between atoms: C_1  and  O_2
REMARK    2  A    between atoms: O_2  and  C_3
REMARK    3  A    between atoms: C_3  and  C_4
REMARK    4  A    between atoms: C_4  and  N_5
REMARK    5  A    between atoms: C_7  and  C_8
REMARK    6  A    between atoms: C_7  and  N_11
REMARK    7  A    between atoms: N_11  and  C_12
REMARK    8  A    between atoms: N_11  and  C_13
REMARK    9  A    between atoms: C_13  and  C_14
REMARK   10  A    between atoms: N_18  and  C_19
REMARK   11  A    between atoms: C_32  and  O_33
REMARK   12  A    between atoms: O_33  and  C_34
REMARK                            x       y       z     vdW  Elec       q    Type
REMARK                         _______ _______ _______ _____ _____    ______ ____
ROOT
ATOM      1  C   UNL     1       2.070  -4.847   3.111  0.00  0.00    +0.000 A 
ATOM      2  C   UNL     1       1.621  -4.412   4.325  0.00  0.00    +0.000 A 
ATOM      3  C   UNL     1       1.429  -5.337   5.377  0.00  0.00    +0.000 A 
ATOM      4  C   UNL     1       0.966  -4.982   6.676  0.00  0.00    +0.000 A 
ATOM      5  N   UNL     1       0.629  -3.579   6.955  0.00  0.00    +0.000 N 
ATOM      6  N   UNL     1       0.831  -5.872   7.630  0.00  0.00    +0.000 NA
ATOM      7  C   UNL     1       1.132  -7.171   7.323  0.00  0.00    +0.000 A 
ATOM      8  N   UNL     1       1.542  -7.629   6.172  0.00  0.00    +0.000 NA
ATOM      9  C   UNL     1       1.701  -6.708   5.168  0.00  0.00    +0.000 A 
ATOM     10  C   UNL     1       2.139  -7.129   3.892  0.00  0.00    +0.000 A 
ATOM     11  C   UNL     1       2.331  -6.214   2.895  0.00  0.00    +0.000 A 
ATOM     12  H   UNL     1       0.728  -2.876   6.223  0.00  0.00    +0.000 HD
ENDROOT
BRANCH   5  13
ATOM     13  C   UNL     1       0.148  -3.190   8.289  0.00  0.00    +0.000 A 
ATOM     14  C   UNL     1      -1.126  -2.696   8.475  0.00  0.00    +0.000 A 
ATOM     15  C   UNL     1      -1.609  -2.416   9.747  0.00  0.00    +0.000 A 
ATOM     16  C   UNL     1      -0.784  -2.642  10.848  0.00  0.00    +0.000 A 
ATOM     17  C   UNL     1       0.492  -3.138  10.659  0.00  0.00    +0.000 A 
ATOM     18 CL   UNL     1       1.509  -3.461  12.021  0.00  0.00    +0.000 Cl
ATOM     19  C   UNL     1       0.943  -3.401   9.386  0.00  0.00    +0.000 A 
ATOM     20  F   UNL     1       2.182  -3.905   9.214  0.00  0.00    +0.000 F 
ENDBRANCH   5  13
BRANCH  11  21
ATOM     21  O   UNL     1       2.798  -6.647   1.626  0.00  0.00    +0.000 OA
ATOM     22  C   UNL     1       3.000  -5.703   0.584  0.00  0.00    +0.000 C 
ENDBRANCH  11  21
BRANCH   1  23
ATOM     23  C   UNL     1       2.494  -3.878   2.019  0.00  0.00    +0.000 C 
BRANCH  23  24
ATOM     24  N   UNL     1       2.667  -2.537   2.595  0.00  0.00    +0.000 NA
ATOM     25  C   UNL     1       3.701  -2.581   3.639  0.00  0.00    +0.000 C 
BRANCH  24  28
ATOM     26  N   UNL     1       1.024  -0.135   2.449  0.00  0.00    +0.000 NA
ATOM     27  C   UNL     1       1.442  -0.691   3.821  0.00  0.00    +0.000 C 
ATOM     28  C   UNL     1       1.397  -2.088   3.182  0.00  0.00    +0.000 C 
ATOM     29  C   UNL     1       0.390  -1.511   2.173  0.00  0.00    +0.000 C 
BRANCH  28  30
ATOM     30  C   UNL     1       1.091  -3.334   3.997  0.00  0.00    +0.000 C 
ATOM     31  N   UNL     1       2.019  -4.474   3.972  0.00  0.00    +0.000 N 
ATOM     32  O   UNL     1       0.034  -3.391   4.700  0.00  0.00    +0.000 OA
ATOM     33  H   UNL     1       1.815  -5.310   4.519  0.00  0.00    +0.000 HD
ATOM     34  H   UNL     1       2.868  -4.428   3.408  0.00  0.00    +0.000 HD
ENDBRANCH  28  30
BRANCH  26  35
ATOM     35  C   UNL     1       0.534   1.249   2.514  0.00  0.00    +0.000 C 
BRANCH  35  36
ATOM     36  C   UNL     1       1.041   2.024   1.308  0.00  0.00    +0.000 C 
BRANCH  36  38
ATOM     37  C   UNL     1       1.041   0.072   0.055  0.00  0.00    +0.000 C 
ATOM     38  O   UNL     1       0.568   1.410   0.119  0.00  0.00    +0.000 OA
ENDBRANCH  36  38
ENDBRANCH  35  36
ENDBRANCH  26  35
ENDBRANCH  24  28
ENDBRANCH  23  24
ENDBRANCH   1  23
TORSDOF 9
