REMARK  Name = 
REMARK  7 active torsions:
REMARK  status: ('A' for Active; 'I' for Inactive)
REMARK    1  A    between atoms: C_1  and  C_2
REMARK    2  A    between atoms: C_2  and  C_3
REMARK    3  A    between atoms: C_2  and  O_4
REMARK    4  A    between atoms: C_2  and  C_5
REMARK    5  A    between atoms: N_8  and  C_9
REMARK    6  A    between atoms: C_9  and  C_10
REMARK    7  A    between atoms: C_15  and  C_16
REMARK                            x       y       z     vdW  Elec       q    Type
REMARK                         _______ _______ _______ _____ _____    ______ ____
ROOT
ATOM      1  C   UNL     1       2.481  -2.261  -1.543  0.00  0.00    +0.000 A 
ATOM      2  C   UNL     1       2.768  -0.930  -1.744  0.00  0.00    +0.000 A 
ATOM      3  C   UNL     1       2.534  -0.399  -3.035  0.00  0.00    +0.000 A 
ATOM      4  C   UNL     1       1.440  -0.928  -3.709  0.00  0.00    +0.000 A 
ATOM      5  N   UNL     1       0.828  -0.291  -4.689  0.00  0.00    +0.000 NA
ATOM      6  C   UNL     1      -0.212  -0.841  -5.293  0.00  0.00    +0.000 A 
ATOM      7  N   UNL     1      -0.677  -2.026  -4.953  0.00  0.00    +0.000 NA
ATOM      8  C   UNL     1      -0.119  -2.736  -3.978  0.00  0.00    +0.000 A 
ATOM      9  N   UNL     1      -0.650  -4.056  -3.611  0.00  0.00    +0.000 N 
ATOM     10  C   UNL     1      -0.833  -5.328  -4.335  0.00  0.00    +0.000 C 
ATOM     11  C   UNL     1      -2.272  -5.776  -4.206  0.00  0.00    +0.000 C 
ATOM     12  O   UNL     1      -2.643  -5.919  -2.835  0.00  0.00    +0.000 OA
ATOM     13  C   UNL     1      -2.494  -4.671  -2.158  0.00  0.00    +0.000 C 
ATOM     14  C   UNL     1      -1.053  -4.196  -2.197  0.00  0.00    +0.000 C 
ATOM     15  C   UNL     1       0.979  -2.200  -3.314  0.00  0.00    +0.000 A 
ATOM     16  N   UNL     1       1.614  -2.867  -2.303  0.00  0.00    +0.000 NA
ENDROOT
BRANCH   6  17
ATOM     17  C   UNL     1      -0.895  -0.080  -6.419  0.00  0.00    +0.000 A 
ATOM     18  C   UNL     1      -2.160   0.277  -6.382  0.00  0.00    +0.000 A 
ATOM     19  F   UNL     1      -2.894   0.076  -5.291  0.00  0.00    +0.000 F 
ATOM     20  C   UNL     1      -2.712   0.871  -7.512  0.00  0.00    +0.000 A 
ATOM     21  C   UNL     1      -1.810   1.499  -8.399  0.00  0.00    +0.000 A 
ATOM     22  C   UNL     1      -0.563   0.894  -8.543  0.00  0.00    +0.000 A 
ATOM     23  N   UNL     1       0.202   1.101  -9.689  0.00  0.00    +0.000 N 
ATOM     24  C   UNL     1      -0.277   1.920 -10.708  0.00  0.00    +0.000 A 
ATOM     25  C   UNL     1       1.157  -0.519  -7.692  0.00  0.00    +0.000 A 
ATOM     26  C   UNL     1      -0.126   0.123  -7.570  0.00  0.00    +0.000 A 
ATOM     27  H   UNL     1       1.113   0.652  -9.781  0.00  0.00    +0.000 HD
ENDBRANCH   6  17
BRANCH   1  28
ATOM     28  C   UNL     1       3.019  -3.014  -0.338  0.00  0.00    +0.000 C 
BRANCH  28  32
ATOM     29  C   UNL     1       1.041  -0.367   2.376  0.00  0.00    +0.000 C 
ATOM     30  C   UNL     1       2.561  -0.322   2.230  0.00  0.00    +0.000 C 
ATOM     31  C   UNL     1       2.999  -0.984   0.942  0.00  0.00    +0.000 C 
ATOM     32  N   UNL     1       2.535  -2.377   0.895  0.00  0.00    +0.000 NA
ATOM     33  C   UNL     1       1.074  -2.402   0.916  0.00  0.00    +0.000 C 
ATOM     34  C   UNL     1       0.537  -1.799   2.203  0.00  0.00    +0.000 C 
BRANCH  29  36
ATOM     35  C   UNL     1       1.041   0.059  -0.069  0.00  0.00    +0.000 C 
ATOM     36  C   UNL     1       0.535   0.552   1.277  0.00  0.00    +0.000 C 
ATOM     37  C   UNL     1       1.041   1.964   1.523  0.00  0.00    +0.000 C 
BRANCH  36  38
ATOM     38  O   UNL     1      -0.885   0.552   1.277  0.00  0.00    +0.000 OA
ATOM     39  H   UNL     1      -1.219   1.157   0.554  0.00  0.00    +0.000 HD
ENDBRANCH  36  38
ENDBRANCH  29  36
ENDBRANCH  28  32
ENDBRANCH   1  28
TORSDOF 5
