
 OpenBabel03132512093D

 47 49  0  0  0  0  0  0  0  0999 V2000
    0.9368    0.0159    0.0758 C   0  0  0  0  0  0  0  0  0  0  0  0
    0.4635   -1.3041    0.2991 O   0  0  0  0  0  0  0  0  0  0  0  0
    0.8065   -2.3438   -0.6051 C   0  0  0  0  0  0  0  0  0  0  0  0
   -0.0729   -3.3374   -0.9347 C   0  0  0  0  0  0  0  0  0  0  0  0
    0.3536   -4.4326   -1.7188 C   0  0  0  0  0  0  0  0  0  0  0  0
   -0.5430   -5.4092   -2.0707 N   0  0  0  0  0  0  0  0  0  0  0  0
   -0.0797   -6.3920   -2.7929 C   0  0  0  0  0  0  0  0  0  0  0  0
    1.2086   -6.5593   -3.2233 N   0  0  0  0  0  0  0  0  0  0  0  0
    2.0797   -5.6406   -2.8823 C   0  0  0  0  0  0  0  0  0  0  0  0
    3.4803   -5.7937   -3.3018 N   0  0  0  0  0  0  0  0  0  0  0  0
    3.8869   -6.9646   -4.0922 C   0  0  0  0  0  0  0  0  0  0  0  0
    4.9389   -7.7908   -3.7543 C   0  0  0  0  0  0  0  0  0  0  0  0
    5.3775   -8.7852   -4.6190 C   0  0  0  0  0  0  0  0  0  0  0  0
    4.7374   -8.9438   -5.8471 C   0  0  0  0  0  0  0  0  0  0  0  0
    3.6831   -8.1159   -6.1837 C   0  0  0  0  0  0  0  0  0  0  0  0
    2.8543   -8.3312   -7.6872 Cl  0  0  0  0  0  0  0  0  0  0  0  0
    3.2743   -7.1366   -5.3069 C   0  0  0  0  0  0  0  0  0  0  0  0
    2.2306   -6.3483   -5.6359 F   0  0  0  0  0  0  0  0  0  0  0  0
    1.7078   -4.4987   -2.1172 C   0  0  0  0  0  0  0  0  0  0  0  0
    2.6013   -3.4663   -1.7516 C   0  0  0  0  0  0  0  0  0  0  0  0
    2.1520   -2.4075   -1.0153 C   0  0  0  0  0  0  0  0  0  0  0  0
    3.1106   -1.2905   -0.6362 C   0  0  0  0  0  0  0  0  0  0  0  0
    4.2129   -1.8416    0.1651 N   0  0  0  0  0  0  0  0  0  0  0  0
    5.1400   -0.7613    0.5317 C   0  0  0  0  0  0  0  0  0  0  0  0
    4.3990    0.2884    1.3437 C   0  0  0  0  0  0  0  0  0  0  0  0
    6.2798   -1.3312    1.3603 C   0  0  0  0  0  0  0  0  0  0  0  0
    7.6658   -1.2095    0.8857 N   0  0  0  0  0  0  0  0  0  0  0  0
    6.0346   -1.9129    2.4633 O   0  0  0  0  0  0  0  0  0  0  0  0
    0.5801    0.6590    0.8531 H   0  0  0  0  0  0  0  0  0  0  0  0
    0.5801    0.3676   -0.8697 H   0  0  0  0  0  0  0  0  0  0  0  0
    2.0068    0.0159    0.0758 H   0  0  0  0  0  0  0  0  0  0  0  0
   -1.0871   -3.2854   -0.5979 H   0  0  0  0  0  0  0  0  0  0  0  0
   -0.7815   -7.1473   -3.0790 H   0  0  0  0  0  0  0  0  0  0  0  0
    4.1699   -5.0876   -3.0445 H   0  0  0  0  0  0  0  0  0  0  0  0
    5.4252   -7.6633   -2.8097 H   0  0  0  0  0  0  0  0  0  0  0  0
    6.1946   -9.4202   -4.3466 H   0  0  0  0  0  0  0  0  0  0  0  0
    5.0612   -9.7039   -6.5269 H   0  0  0  0  0  0  0  0  0  0  0  0
    3.6275   -3.5143   -2.0510 H   0  0  0  0  0  0  0  0  0  0  0  0
    3.5047   -0.8419   -1.5241 H   0  0  0  0  0  0  0  0  0  0  0  0
    2.5890   -0.5515   -0.0646 H   0  0  0  0  0  0  0  0  0  0  0  0
    3.8373   -2.2692    1.0115 H   0  0  0  0  0  0  0  0  0  0  0  0
    5.5340   -0.3128   -0.3562 H   0  0  0  0  0  0  0  0  0  0  0  0
    4.0049   -0.1601    2.2317 H   0  0  0  0  0  0  0  0  0  0  0  0
    5.0738    1.0748    1.6106 H   0  0  0  0  0  0  0  0  0  0  0  0
    3.5966    0.6896    0.7605 H   0  0  0  0  0  0  0  0  0  0  0  0
    8.4306   -1.5920    1.4417 H   0  0  0  0  0  0  0  0  0  0  0  0
    7.8626   -0.7427    0.0004 H   0  0  0  0  0  0  0  0  0  0  0  0
  1  2  1  0  0  0  0
  1 29  1  0  0  0  0
  1 30  1  0  0  0  0
  1 31  1  0  0  0  0
  2  3  1  0  0  0  0
  3  4  1  0  0  0  0
  3 21  2  0  0  0  0
  4  5  2  0  0  0  0
  4 32  1  0  0  0  0
  5  6  1  0  0  0  0
  5 19  1  0  0  0  0
  6  7  2  0  0  0  0
  7  8  1  0  0  0  0
  7 33  1  0  0  0  0
  8  9  2  0  0  0  0
  9 10  1  0  0  0  0
  9 19  1  0  0  0  0
 10 11  1  0  0  0  0
 10 34  1  0  0  0  0
 11 12  1  0  0  0  0
 11 17  2  0  0  0  0
 12 13  2  0  0  0  0
 12 35  1  0  0  0  0
 13 14  1  0  0  0  0
 13 36  1  0  0  0  0
 14 15  2  0  0  0  0
 14 37  1  0  0  0  0
 15 16  1  0  0  0  0
 15 17  1  0  0  0  0
 17 18  1  0  0  0  0
 19 20  2  0  0  0  0
 20 21  1  0  0  0  0
 20 38  1  0  0  0  0
 21 22  1  0  0  0  0
 22 23  1  0  0  0  0
 22 39  1  0  0  0  0
 22 40  1  0  0  0  0
 23 24  1  0  0  0  0
 23 41  1  0  0  0  0
 24 25  1  0  0  0  0
 24 26  1  0  0  0  0
 24 42  1  0  0  0  0
 25 43  1  0  0  0  0
 25 44  1  0  0  0  0
 25 45  1  0  0  0  0
 26 27  1  0  0  0  0
 26 28  2  0  0  0  0
 27 46  1  0  0  0  0
 27 47  1  0  0  0  0
M  END
