
 OpenBabel03132512093D

 63 66  0  0  0  0  0  0  0  0999 V2000
    1.0411    0.0725    0.0553 C   0  0  0  0  0  0  0  0  0  0  0  0
    0.5678    1.4098    0.1186 O   0  0  0  0  0  0  0  0  0  0  0  0
    1.0411    2.0236    1.3083 C   0  0  0  0  0  0  0  0  0  0  0  0
    0.5345    1.2492    2.5142 C   0  0  0  0  0  0  0  0  0  0  0  0
    1.0245   -0.1352    2.4487 N   0  0  0  0  0  0  0  0  0  0  0  0
    1.4422   -0.6906    3.8212 C   0  0  0  0  0  0  0  0  0  0  0  0
    1.3965   -2.0878    3.1820 C   0  0  0  0  0  0  0  0  0  0  0  0
    1.0915   -3.3341    3.9970 C   0  0  0  0  0  0  0  0  0  0  0  0
    2.0195   -4.4739    3.9722 N   0  0  0  0  0  0  0  0  0  0  0  0
    0.0341   -3.3907    4.6998 O   0  0  0  0  0  0  0  0  0  0  0  0
    2.6672   -2.5368    2.5947 N   0  0  0  0  0  0  0  0  0  0  0  0
    3.7010   -2.5810    3.6388 C   0  0  0  0  0  0  0  0  0  0  0  0
    2.4941   -3.8784    2.0194 C   0  0  0  0  0  0  0  0  0  0  0  0
    2.0703   -4.8471    3.1113 C   0  0  0  0  0  0  0  0  0  0  0  0
    1.6208   -4.4125    4.3254 C   0  0  0  0  0  0  0  0  0  0  0  0
    1.4290   -5.3374    5.3769 C   0  0  0  0  0  0  0  0  0  0  0  0
    0.9656   -4.9824    6.6757 C   0  0  0  0  0  0  0  0  0  0  0  0
    0.6286   -3.5791    6.9548 N   0  0  0  0  0  0  0  0  0  0  0  0
    0.1484   -3.1897    8.2885 C   0  0  0  0  0  0  0  0  0  0  0  0
   -1.1262   -2.6955    8.4749 C   0  0  0  0  0  0  0  0  0  0  0  0
   -1.6090   -2.4156    9.7468 C   0  0  0  0  0  0  0  0  0  0  0  0
   -0.7844   -2.6415   10.8476 C   0  0  0  0  0  0  0  0  0  0  0  0
    0.4918   -3.1375   10.6592 C   0  0  0  0  0  0  0  0  0  0  0  0
    1.5086   -3.4614   12.0213 Cl  0  0  0  0  0  0  0  0  0  0  0  0
    0.9430   -3.4011    9.3858 C   0  0  0  0  0  0  0  0  0  0  0  0
    2.1821   -3.9053    9.2145 F   0  0  0  0  0  0  0  0  0  0  0  0
    0.8310   -5.8716    7.6298 N   0  0  0  0  0  0  0  0  0  0  0  0
    1.1322   -7.1709    7.3227 C   0  0  0  0  0  0  0  0  0  0  0  0
    1.5415   -7.6292    6.1719 N   0  0  0  0  0  0  0  0  0  0  0  0
    1.7014   -6.7082    5.1681 C   0  0  0  0  0  0  0  0  0  0  0  0
    2.1391   -7.1289    3.8923 C   0  0  0  0  0  0  0  0  0  0  0  0
    2.3307   -6.2139    2.8948 C   0  0  0  0  0  0  0  0  0  0  0  0
    2.7978   -6.6468    1.6256 O   0  0  0  0  0  0  0  0  0  0  0  0
    2.9996   -5.7034    0.5837 C   0  0  0  0  0  0  0  0  0  0  0  0
    0.3902   -1.5109    2.1727 C   0  0  0  0  0  0  0  0  0  0  0  0
    0.6844   -0.3901   -0.8412 H   0  0  0  0  0  0  0  0  0  0  0  0
    0.6845   -0.4727    0.9041 H   0  0  0  0  0  0  0  0  0  0  0  0
    2.1111    0.0725    0.0553 H   0  0  0  0  0  0  0  0  0  0  0  0
    2.1111    2.0236    1.3083 H   0  0  0  0  0  0  0  0  0  0  0  0
    0.6844    3.0313    1.3560 H   0  0  0  0  0  0  0  0  0  0  0  0
    0.8911    1.7117    3.4107 H   0  0  0  0  0  0  0  0  0  0  0  0
   -0.5355    1.2492    2.5142 H   0  0  0  0  0  0  0  0  0  0  0  0
    2.3081   -0.3321    4.3375 H   0  0  0  0  0  0  0  0  0  0  0  0
    0.7298   -0.5327    4.6038 H   0  0  0  0  0  0  0  0  0  0  0  0
    1.8148   -5.3102    4.5191 H   0  0  0  0  0  0  0  0  0  0  0  0
    2.8681   -4.4284    3.4081 H   0  0  0  0  0  0  0  0  0  0  0  0
    3.4027   -3.2630    4.4075 H   0  0  0  0  0  0  0  0  0  0  0  0
    4.6259   -2.9078    3.2113 H   0  0  0  0  0  0  0  0  0  0  0  0
    3.8270   -1.6045    4.0576 H   0  0  0  0  0  0  0  0  0  0  0  0
    1.7416   -3.8461    1.2594 H   0  0  0  0  0  0  0  0  0  0  0  0
    3.4189   -4.2051    1.5919 H   0  0  0  0  0  0  0  0  0  0  0  0
    1.4143   -3.3741    4.4804 H   0  0  0  0  0  0  0  0  0  0  0  0
    0.7280   -2.8755    6.2231 H   0  0  0  0  0  0  0  0  0  0  0  0
   -1.7535   -2.5249    7.6250 H   0  0  0  0  0  0  0  0  0  0  0  0
   -2.5992   -2.0323    9.8795 H   0  0  0  0  0  0  0  0  0  0  0  0
   -1.1383   -2.4316   11.8354 H   0  0  0  0  0  0  0  0  0  0  0  0
    1.0200   -7.8868    8.1100 H   0  0  0  0  0  0  0  0  0  0  0  0
    2.3212   -8.1668    3.7063 H   0  0  0  0  0  0  0  0  0  0  0  0
    2.0754   -5.2107    0.3647 H   0  0  0  0  0  0  0  0  0  0  0  0
    3.7248   -4.9801    0.8930 H   0  0  0  0  0  0  0  0  0  0  0  0
    3.3506   -6.2086   -0.2918 H   0  0  0  0  0  0  0  0  0  0  0  0
   -0.6627   -1.6780    2.2635 H   0  0  0  0  0  0  0  0  0  0  0  0
    0.5079   -1.8655    1.1701 H   0  0  0  0  0  0  0  0  0  0  0  0
  1  2  1  0  0  0  0
  1 36  1  0  0  0  0
  1 37  1  0  0  0  0
  1 38  1  0  0  0  0
  2  3  1  0  0  0  0
  3  4  1  0  0  0  0
  3 39  1  0  0  0  0
  3 40  1  0  0  0  0
  4  5  1  0  0  0  0
  4 41  1  0  0  0  0
  4 42  1  0  0  0  0
  5  6  1  0  0  0  0
  5 35  1  0  0  0  0
  6  7  1  0  0  0  0
  6 43  1  0  0  0  0
  6 44  1  0  0  0  0
  7  8  1  0  0  0  0
  7 11  1  0  0  0  0
  7 35  1  0  0  0  0
  8  9  1  0  0  0  0
  8 10  2  0  0  0  0
  9 45  1  0  0  0  0
  9 46  1  0  0  0  0
 11 12  1  0  0  0  0
 11 13  1  0  0  0  0
 12 47  1  0  0  0  0
 12 48  1  0  0  0  0
 12 49  1  0  0  0  0
 13 14  1  0  0  0  0
 13 50  1  0  0  0  0
 13 51  1  0  0  0  0
 14 15  1  0  0  0  0
 14 32  2  0  0  0  0
 15 16  2  0  0  0  0
 15 52  1  0  0  0  0
 16 17  1  0  0  0  0
 16 30  1  0  0  0  0
 17 18  1  0  0  0  0
 17 27  2  0  0  0  0
 18 19  1  0  0  0  0
 18 53  1  0  0  0  0
 19 20  1  0  0  0  0
 19 25  2  0  0  0  0
 20 21  2  0  0  0  0
 20 54  1  0  0  0  0
 21 22  1  0  0  0  0
 21 55  1  0  0  0  0
 22 23  2  0  0  0  0
 22 56  1  0  0  0  0
 23 24  1  0  0  0  0
 23 25  1  0  0  0  0
 25 26  1  0  0  0  0
 27 28  1  0  0  0  0
 28 29  2  0  0  0  0
 28 57  1  0  0  0  0
 29 30  1  0  0  0  0
 30 31  2  0  0  0  0
 31 32  1  0  0  0  0
 31 58  1  0  0  0  0
 32 33  1  0  0  0  0
 33 34  1  0  0  0  0
 34 59  1  0  0  0  0
 34 60  1  0  0  0  0
 34 61  1  0  0  0  0
 35 62  1  0  0  0  0
 35 63  1  0  0  0  0
M  END
