REMARK  Name = 
REMARK  10 active torsions:
REMARK  status: ('A' for Active; 'I' for Inactive)
REMARK    1  A    between atoms: C_1  and  C_2
REMARK    2  A    between atoms: C_2  and  N_3
REMARK    3  A    between atoms: N_3  and  C_4
REMARK    4  A    between atoms: N_3  and  C_6
REMARK    5  A    between atoms: C_4  and  C_5
REMARK    6  A    between atoms: C_9  and  C_10
REMARK    7  A    between atoms: C_13  and  C_14
REMARK    8  A    between atoms: C_18  and  O_19
REMARK    9  A    between atoms: O_19  and  C_20
REMARK   10  A    between atoms: C_24  and  O_25
REMARK                            x       y       z     vdW  Elec       q    Type
REMARK                         _______ _______ _______ _____ _____    ______ ____
ROOT
ATOM      1  C   UNL     1      10.668  -3.972   1.754  0.00  0.00    +0.000 A 
ATOM      2  N   UNL     1      11.539  -3.462   0.812  0.00  0.00    +0.000 NA
ATOM      3  C   UNL     1      12.915  -3.651   0.969  0.00  0.00    +0.000 A 
ATOM      4  N   UNL     1      14.086  -3.260   0.186  0.00  0.00    +0.000 NA
ATOM      5  C   UNL     1      15.144  -3.702   0.801  0.00  0.00    +0.000 A 
ATOM      6  N   UNL     1      14.776  -4.380   1.967  0.00  0.00    +0.000 N 
ATOM      7  C   UNL     1      13.402  -4.357   2.084  0.00  0.00    +0.000 A 
ATOM      8  C   UNL     1      12.510  -4.862   3.023  0.00  0.00    +0.000 A 
ATOM      9  C   UNL     1      11.156  -4.666   2.862  0.00  0.00    +0.000 A 
ATOM     10 CL   UNL     1      10.021  -5.303   4.075  0.00  0.00    +0.000 Cl
ATOM     11  H   UNL     1      15.420  -4.820   2.625  0.00  0.00    +0.000 HD
ENDROOT
BRANCH   1  15
ATOM     12  C   UNL     1       6.505  -3.218   1.165  0.00  0.00    +0.000 A 
ATOM     13  C   UNL     1       7.218  -3.840   0.154  0.00  0.00    +0.000 A 
ATOM     14  C   UNL     1       8.522  -4.238   0.532  0.00  0.00    +0.000 A 
ATOM     15  C   UNL     1       9.170  -3.776   1.586  0.00  0.00    +0.000 A 
ATOM     16  C   UNL     1       8.421  -3.111   2.517  0.00  0.00    +0.000 A 
ATOM     17  C   UNL     1       7.105  -2.800   2.274  0.00  0.00    +0.000 A 
BRANCH  12  21
ATOM     18  C   UNL     1       2.333  -2.619   0.475  0.00  0.00    +0.000 A 
ATOM     19  C   UNL     1       2.845  -3.903   0.381  0.00  0.00    +0.000 A 
ATOM     20  C   UNL     1       4.178  -4.023   0.840  0.00  0.00    +0.000 A 
ATOM     21  C   UNL     1       5.009  -3.009   1.003  0.00  0.00    +0.000 A 
ATOM     22  C   UNL     1       4.449  -1.762   1.019  0.00  0.00    +0.000 A 
ATOM     23  C   UNL     1       3.123  -1.578   0.710  0.00  0.00    +0.000 A 
BRANCH  18  24
ATOM     24  N   UNL     1       0.888  -2.406   0.312  0.00  0.00    +0.000 N 
BRANCH  24  26
ATOM     25  C   UNL     1       0.905   0.019   0.024  0.00  0.00    +0.000 C 
ATOM     26  C   UNL     1       0.398  -1.304  -0.528  0.00  0.00    +0.000 C 
ENDBRANCH  24  26
BRANCH  24  27
ATOM     27  C   UNL     1      -0.067  -3.294   0.990  0.00  0.00    +0.000 C 
ATOM     28  C   UNL     1       0.148  -4.723   0.519  0.00  0.00    +0.000 C 
ENDBRANCH  24  27
ENDBRANCH  18  24
ENDBRANCH  12  21
ENDBRANCH   1  15
BRANCH   5  29
ATOM     29  O   UNL     1      16.479  -3.523   0.352  0.00  0.00    +0.000 OA
BRANCH  29  30
ATOM     30  C   UNL     1      16.735  -2.815  -0.852  0.00  0.00    +0.000 C 
ATOM     31  C   UNL     1      16.273  -1.555  -0.788  0.00  0.00    +0.000 C 
ATOM     32  O   UNL     1      14.885  -1.521  -1.224  0.00  0.00    +0.000 OA
ATOM     33  C   UNL     1      14.676  -2.759  -2.117  0.00  0.00    +0.000 C 
ATOM     34  C   UNL     1      14.612  -2.322  -3.566  0.00  0.00    +0.000 C 
ATOM     35  C   UNL     1      15.896  -2.208  -4.004  0.00  0.00    +0.000 C 
ATOM     36  O   UNL     1      16.742  -3.171  -3.317  0.00  0.00    +0.000 OA
ATOM     37  C   UNL     1      16.029  -3.515  -1.996  0.00  0.00    +0.000 C 
BRANCH  34  38
ATOM     38  O   UNL     1      13.920  -1.089  -3.694  0.00  0.00    +0.000 OA
ATOM     39  H   UNL     1      14.390  -0.386  -3.159  0.00  0.00    +0.000 HD
ENDBRANCH  34  38
ENDBRANCH  29  30
ENDBRANCH   5  29
TORSDOF 8
