REMARK  Name = 
REMARK  14 active torsions:
REMARK  status: ('A' for Active; 'I' for Inactive)
REMARK    1  A    between atoms: C_1  and  C_2
REMARK    2  A    between atoms: C_2  and  N_3
REMARK    3  A    between atoms: N_3  and  C_4
REMARK    4  A    between atoms: N_3  and  C_6
REMARK    5  A    between atoms: C_4  and  C_5
REMARK    6  A    between atoms: C_6  and  C_7
REMARK    7  A    between atoms: C_7  and  N_8
REMARK    8  A    between atoms: C_9  and  C_11
REMARK    9  A    between atoms: C_12  and  C_13
REMARK   10  A    between atoms: C_15  and  C_16
REMARK   11  A    between atoms: C_26  and  C_27
REMARK   12  A    between atoms: C_32  and  O_33
REMARK   13  A    between atoms: O_33  and  C_34
REMARK   14  A    between atoms: C_35  and  C_36
REMARK                            x       y       z     vdW  Elec       q    Type
REMARK                         _______ _______ _______ _____ _____    ______ ____
ROOT
ATOM      1  C   UNL     1       8.435   1.936   0.172  0.00  0.00    +0.000 C 
ATOM      2  C   UNL     1       9.434   2.823   0.019  0.00  0.00    +0.000 C 
ATOM      3  C   UNL     1       9.234   4.082  -0.760  0.00  0.00    +0.000 C 
ATOM      4  O   UNL     1       8.231   4.445  -1.375  0.00  0.00    +0.000 OA
ATOM      5  N   UNL     1      10.383   4.797  -0.661  0.00  0.00    +0.000 N 
ATOM      6  C   UNL     1      11.339   4.118   0.102  0.00  0.00    +0.000 A 
ATOM      7  C   UNL     1      10.806   2.899   0.522  0.00  0.00    +0.000 A 
ATOM      8  C   UNL     1      11.645   2.047   1.229  0.00  0.00    +0.000 A 
ATOM      9  C   UNL     1      12.943   2.450   1.519  0.00  0.00    +0.000 A 
ATOM     10  C   UNL     1      13.422   3.694   1.136  0.00  0.00    +0.000 A 
ATOM     11  C   UNL     1      12.611   4.549   0.397  0.00  0.00    +0.000 A 
ATOM     12  H   UNL     1      10.530   5.711  -1.088  0.00  0.00    +0.000 HD
ENDROOT
BRANCH   1  17
ATOM     13  C   UNL     1       4.900   2.507  -0.900  0.00  0.00    +0.000 A 
ATOM     14  C   UNL     1       5.554   2.510  -2.107  0.00  0.00    +0.000 A 
ATOM     15  C   UNL     1       5.049   2.713  -3.494  0.00  0.00    +0.000 C 
ATOM     16  N   UNL     1       6.876   2.293  -1.855  0.00  0.00    +0.000 N 
ATOM     17  C   UNL     1       7.094   2.172  -0.504  0.00  0.00    +0.000 A 
ATOM     18  C   UNL     1       5.881   2.303   0.126  0.00  0.00    +0.000 A 
ATOM     19  C   UNL     1       5.609   2.207   1.606  0.00  0.00    +0.000 C 
ATOM     20  H   UNL     1       7.602   2.230  -2.569  0.00  0.00    +0.000 HD
BRANCH  13  22
ATOM     21  N   UNL     1       2.450   1.964  -1.540  0.00  0.00    +0.000 N 
ATOM     22  C   UNL     1       3.406   2.687  -0.688  0.00  0.00    +0.000 C 
ATOM     23  O   UNL     1       2.982   3.463   0.225  0.00  0.00    +0.000 OA
ATOM     24  H   UNL     1       1.448   2.085  -1.398  0.00  0.00    +0.000 HD
BRANCH  21  25
ATOM     25  C   UNL     1       2.940   1.067  -2.596  0.00  0.00    +0.000 C 
BRANCH  25  26
ATOM     26  C   UNL     1       2.434  -0.343  -2.339  0.00  0.00    +0.000 C 
BRANCH  26  27
ATOM     27  N   UNL     1       0.964  -0.343  -2.339  0.00  0.00    +0.000 NA
BRANCH  27  29
ATOM     28  C   UNL     1       0.980   0.072   0.067  0.00  0.00    +0.000 C 
ATOM     29  C   UNL     1       0.474   0.554  -1.283  0.00  0.00    +0.000 C 
ENDBRANCH  27  29
BRANCH  27  30
ATOM     30  C   UNL     1       0.474   0.124  -3.644  0.00  0.00    +0.000 C 
ATOM     31  C   UNL     1       0.980   1.534  -3.901  0.00  0.00    +0.000 C 
ENDBRANCH  27  30
ENDBRANCH  26  27
ENDBRANCH  25  26
ENDBRANCH  21  25
ENDBRANCH  13  22
ENDBRANCH   1  17
BRANCH  11  32
ATOM     32  C   UNL     1      13.113   5.906  -0.068  0.00  0.00    +0.000 A 
ATOM     33  C   UNL     1      12.409   7.027   0.380  0.00  0.00    +0.000 A 
ATOM     34  C   UNL     1      12.820   8.272  -0.078  0.00  0.00    +0.000 A 
ATOM     35  C   UNL     1      13.893   8.348  -0.938  0.00  0.00    +0.000 A 
ATOM     36  N   UNL     1      14.556   7.278  -1.387  0.00  0.00    +0.000 NA
ATOM     37  C   UNL     1      14.162   6.072  -0.950  0.00  0.00    +0.000 A 
BRANCH  37  38
ATOM     38  O   UNL     1      14.852   4.920  -1.414  0.00  0.00    +0.000 OA
ATOM     39  C   UNL     1      14.458   3.630  -0.970  0.00  0.00    +0.000 C 
ENDBRANCH  37  38
ENDBRANCH  11  32
TORSDOF 9
