REMARK  Name = 
REMARK  5 active torsions:
REMARK  status: ('A' for Active; 'I' for Inactive)
REMARK    1  A    between atoms: C_2  and  O_3
REMARK    2  A    between atoms: C_2  and  C_4
REMARK    3  A    between atoms: C_11  and  C_12
REMARK    4  A    between atoms: C_15  and  C_16
REMARK    5  A    between atoms: C_16  and  O_17
REMARK                            x       y       z     vdW  Elec       q    Type
REMARK                         _______ _______ _______ _____ _____    ______ ____
ROOT
ATOM      1  C   UNL     1       3.079   0.623  -1.169  0.00  0.00    +0.000 A 
ATOM      2  N   UNL     1       4.166   0.096  -1.653  0.00  0.00    +0.000 NA
ATOM      3  N   UNL     1       4.671   0.893  -2.685  0.00  0.00    +0.000 N 
ATOM      4  C   UNL     1       3.844   1.985  -2.853  0.00  0.00    +0.000 A 
ATOM      5  C   UNL     1       3.860   3.077  -3.713  0.00  0.00    +0.000 A 
ATOM      6  C   UNL     1       2.864   4.025  -3.639  0.00  0.00    +0.000 A 
ATOM      7 CL   UNL     1       2.883   5.414  -4.753  0.00  0.00    +0.000 Cl
ATOM      8  C   UNL     1       1.841   3.907  -2.699  0.00  0.00    +0.000 A 
ATOM      9  C   UNL     1       1.808   2.828  -1.837  0.00  0.00    +0.000 A 
ATOM     10  C   UNL     1       2.812   1.857  -1.907  0.00  0.00    +0.000 A 
ATOM     11  H   UNL     1       5.513   0.699  -3.226  0.00  0.00    +0.000 HD
ENDROOT
BRANCH   8  12
ATOM     12  C   UNL     1       0.757   4.969  -2.622  0.00  0.00    +0.000 A 
ATOM     13  C   UNL     1      -0.070   5.234  -3.749  0.00  0.00    +0.000 A 
ATOM     14  C   UNL     1      -0.853   6.400  -3.771  0.00  0.00    +0.000 A 
ATOM     15  C   UNL     1      -1.034   7.082  -2.679  0.00  0.00    +0.000 A 
ATOM     16  C   UNL     1      -0.457   6.651  -1.477  0.00  0.00    +0.000 A 
ATOM     17  C   UNL     1       0.563   5.669  -1.503  0.00  0.00    +0.000 A 
BRANCH  15  18
ATOM     18  C   UNL     1      -1.872   8.350  -2.706  0.00  0.00    +0.000 C 
ATOM     19  C   UNL     1      -2.940   8.344  -1.599  0.00  0.00    +0.000 C 
ATOM     20  C   UNL     1      -3.384   9.753  -2.030  0.00  0.00    +0.000 C 
ATOM     21  C   UNL     1      -2.691   9.511  -3.377  0.00  0.00    +0.000 C 
BRANCH  18  22
ATOM     22  O   UNL     1      -0.664   8.927  -2.260  0.00  0.00    +0.000 OA
ATOM     23  H   UNL     1      -0.791   9.910  -2.131  0.00  0.00    +0.000 HD
ENDBRANCH  18  22
ENDBRANCH  15  18
ENDBRANCH   8  12
BRANCH   1  25
ATOM     24  O   UNL     1       1.048   0.082   0.031  0.00  0.00    +0.000 OA
ATOM     25  C   UNL     1       2.319   0.082   0.031  0.00  0.00    +0.000 C 
BRANCH  25  26
ATOM     26  O   UNL     1       3.029  -0.424   1.152  0.00  0.00    +0.000 OA
ATOM     27  H   UNL     1       4.029  -0.424   1.152  0.00  0.00    +0.000 HD
ENDBRANCH  25  26
ENDBRANCH   1  25
TORSDOF 5
