REMARK  Name = 
REMARK  4 active torsions:
REMARK  status: ('A' for Active; 'I' for Inactive)
REMARK    1  A    between atoms: C_1  and  C_2
REMARK    2  A    between atoms: C_2  and  C_3
REMARK    3  A    between atoms: C_2  and  N_4
REMARK    4  A    between atoms: C_6  and  C_7
REMARK                            x       y       z     vdW  Elec       q    Type
REMARK                         _______ _______ _______ _____ _____    ______ ____
ROOT
ATOM      1  N   UNL     1      -1.035  -0.855  -1.148  0.00  0.00    +0.000 N 
ATOM      2  N   UNL     1      -1.806  -0.884  -0.080  0.00  0.00    +0.000 NA
ATOM      3  C   UNL     1      -3.083  -0.876  -0.430  0.00  0.00    +0.000 A 
ATOM      4  C   UNL     1      -3.161  -0.840  -1.759  0.00  0.00    +0.000 A 
ATOM      5  C   UNL     1      -4.215  -0.815  -2.696  0.00  0.00    +0.000 A 
ATOM      6  N   UNL     1      -5.613  -0.830  -2.241  0.00  0.00    +0.000 N 
ATOM      7  N   UNL     1      -3.928  -0.778  -4.016  0.00  0.00    +0.000 NA
ATOM      8  C   UNL     1      -2.646  -0.770  -4.465  0.00  0.00    +0.000 A 
ATOM      9  N   UNL     1      -1.595  -0.787  -3.614  0.00  0.00    +0.000 NA
ATOM     10  C   UNL     1      -1.821  -0.825  -2.236  0.00  0.00    +0.000 A 
ATOM     11  H   UNL     1      -5.824  -0.859  -1.244  0.00  0.00    +0.000 HD
ATOM     12  H   UNL     1      -6.372  -0.812  -2.923  0.00  0.00    +0.000 HD
ENDROOT
BRANCH   3  13
ATOM     13  C   UNL     1      -4.264  -0.905   0.527  0.00  0.00    +0.000 A 
ATOM     14  C   UNL     1      -5.181  -1.936   0.475  0.00  0.00    +0.000 A 
ATOM     15  C   UNL     1      -6.212  -1.968   1.305  0.00  0.00    +0.000 A 
ATOM     16  C   UNL     1      -6.400  -1.024   2.212  0.00  0.00    +0.000 A 
ATOM     17  N   UNL     1      -7.496  -1.101   3.068  0.00  0.00    +0.000 NA
ATOM     18  C   UNL     1      -7.702  -0.111   4.027  0.00  0.00    +0.000 A 
ATOM     19  C   UNL     1      -6.782   0.992   4.131  0.00  0.00    +0.000 A 
ATOM     20  C   UNL     1      -5.736   1.062   3.310  0.00  0.00    +0.000 A 
ATOM     21  C   UNL     1      -5.523   0.038   2.320  0.00  0.00    +0.000 A 
ATOM     22  C   UNL     1      -4.435   0.106   1.462  0.00  0.00    +0.000 A 
ENDBRANCH   3  13
BRANCH   1  24
ATOM     23  C   UNL     1       0.942   0.065  -0.049  0.00  0.00    +0.000 C 
ATOM     24  C   UNL     1       0.435  -0.855  -1.148  0.00  0.00    +0.000 C 
ATOM     25  C   UNL     1       0.942  -2.267  -0.900  0.00  0.00    +0.000 C 
ENDBRANCH   1  24
TORSDOF 2
