REMARK  Name = 
REMARK  13 active torsions:
REMARK  status: ('A' for Active; 'I' for Inactive)
REMARK    1  A    between atoms: C_1  and  C_2
REMARK    2  A    between atoms: C_2  and  N_3
REMARK    3  A    between atoms: N_3  and  C_4
REMARK    4  A    between atoms: N_3  and  C_6
REMARK    5  A    between atoms: C_4  and  C_5
REMARK    6  A    between atoms: C_6  and  C_7
REMARK    7  A    between atoms: C_7  and  N_8
REMARK    8  A    between atoms: C_9  and  C_11
REMARK    9  A    between atoms: C_12  and  C_13
REMARK   10  A    between atoms: C_15  and  C_16
REMARK   11  A    between atoms: C_26  and  C_27
REMARK   12  A    between atoms: C_30  and  C_31
REMARK   13  A    between atoms: C_38  and  C_39
REMARK                            x       y       z     vdW  Elec       q    Type
REMARK                         _______ _______ _______ _____ _____    ______ ____
ROOT
ATOM      1  C   UNL     1       8.431   1.266  -1.247  0.00  0.00    +0.000 C 
ATOM      2  C   UNL     1       9.424   1.736  -2.023  0.00  0.00    +0.000 C 
ATOM      3  C   UNL     1       9.215   1.973  -3.484  0.00  0.00    +0.000 C 
ATOM      4  O   UNL     1       8.209   1.742  -4.156  0.00  0.00    +0.000 OA
ATOM      5  N   UNL     1      10.359   2.521  -3.965  0.00  0.00    +0.000 N 
ATOM      6  C   UNL     1      11.320   2.656  -2.957  0.00  0.00    +0.000 A 
ATOM      7  C   UNL     1      10.796   2.171  -1.758  0.00  0.00    +0.000 A 
ATOM      8  C   UNL     1      11.641   2.150  -0.656  0.00  0.00    +0.000 A 
ATOM      9  C   UNL     1      12.936   2.639  -0.777  0.00  0.00    +0.000 A 
ATOM     10  C   UNL     1      13.406   3.167  -1.971  0.00  0.00    +0.000 A 
ATOM     11  C   UNL     1      12.590   3.166  -3.096  0.00  0.00    +0.000 A 
ATOM     12  H   UNL     1      10.500   2.798  -4.936  0.00  0.00    +0.000 HD
ENDROOT
BRANCH   1  17
ATOM     13  C   UNL     1       4.895   0.838  -2.381  0.00  0.00    +0.000 A 
ATOM     14  C   UNL     1       5.548  -0.067  -3.180  0.00  0.00    +0.000 A 
ATOM     15  C   UNL     1       5.043  -0.976  -4.247  0.00  0.00    +0.000 C 
ATOM     16  N   UNL     1       6.871  -0.021  -2.852  0.00  0.00    +0.000 N 
ATOM     17  C   UNL     1       7.090   0.914  -1.870  0.00  0.00    +0.000 A 
ATOM     18  C   UNL     1       5.877   1.474  -1.552  0.00  0.00    +0.000 A 
ATOM     19  C   UNL     1       5.606   2.522  -0.502  0.00  0.00    +0.000 C 
ATOM     20  H   UNL     1       7.596  -0.599  -3.276  0.00  0.00    +0.000 HD
BRANCH  13  22
ATOM     21  N   UNL     1       2.445  -0.002  -2.395  0.00  0.00    +0.000 N 
ATOM     22  C   UNL     1       3.401   1.116  -2.376  0.00  0.00    +0.000 C 
ATOM     23  O   UNL     1       2.977   2.314  -2.356  0.00  0.00    +0.000 OA
ATOM     24  H   UNL     1       1.442   0.185  -2.392  0.00  0.00    +0.000 HD
BRANCH  21  25
ATOM     25  C   UNL     1       2.935  -1.387  -2.419  0.00  0.00    +0.000 C 
BRANCH  25  26
ATOM     26  C   UNL     1       2.429  -2.125  -1.190  0.00  0.00    +0.000 C 
BRANCH  26  27
ATOM     27  N   UNL     1       0.959  -2.125  -1.190  0.00  0.00    +0.000 NA
BRANCH  27  29
ATOM     28  C   UNL     1       0.975  -0.044   0.086  0.00  0.00    +0.000 C 
ATOM     29  C   UNL     1       0.469  -0.739  -1.167  0.00  0.00    +0.000 C 
ENDBRANCH  27  29
BRANCH  27  30
ATOM     30  C   UNL     1       0.469  -2.797  -2.402  0.00  0.00    +0.000 C 
ATOM     31  C   UNL     1       0.975  -2.060  -3.631  0.00  0.00    +0.000 C 
ENDBRANCH  27  30
ENDBRANCH  26  27
ENDBRANCH  25  26
ENDBRANCH  21  25
ENDBRANCH  13  22
ENDBRANCH   1  17
BRANCH  11  32
ATOM     32  C   UNL     1      13.082   3.706  -4.429  0.00  0.00    +0.000 A 
ATOM     33  C   UNL     1      14.077   3.133  -5.177  0.00  0.00    +0.000 A 
ATOM     34  S   UNL     1      14.212   3.928  -6.724  0.00  0.00    +0.000 S 
ATOM     35  C   UNL     1      12.922   4.981  -6.256  0.00  0.00    +0.000 A 
ATOM     36  N   UNL     1      12.451   4.765  -5.062  0.00  0.00    +0.000 NA
BRANCH  35  37
ATOM     37  C   UNL     1      12.381   6.072  -7.166  0.00  0.00    +0.000 A 
ATOM     38  C   UNL     1      11.746   5.602  -8.304  0.00  0.00    +0.000 A 
ATOM     39  C   UNL     1      11.386   6.618  -9.220  0.00  0.00    +0.000 A 
ATOM     40  C   UNL     1      11.306   7.902  -8.922  0.00  0.00    +0.000 A 
ATOM     41  C   UNL     1      11.895   8.292  -7.751  0.00  0.00    +0.000 A 
ATOM     42  C   UNL     1      12.387   7.365  -6.865  0.00  0.00    +0.000 A 
ENDBRANCH  35  37
ENDBRANCH  11  32
TORSDOF 9
