REMARK  Name = 
REMARK  9 active torsions:
REMARK  status: ('A' for Active; 'I' for Inactive)
REMARK    1  A    between atoms: C_1  and  N_2
REMARK    2  A    between atoms: N_5  and  C_6
REMARK    3  A    between atoms: C_6  and  C_7
REMARK    4  A    between atoms: C_7  and  C_8
REMARK    5  A    between atoms: C_8  and  O_9
REMARK    6  A    between atoms: O_9  and  C_10
REMARK    7  A    between atoms: C_13  and  C_14
REMARK    8  A    between atoms: C_17  and  C_18
REMARK    9  A    between atoms: C_18  and  O_20
REMARK                            x       y       z     vdW  Elec       q    Type
REMARK                         _______ _______ _______ _____ _____    ______ ____
ROOT
ATOM      1  C   UNL     1      -1.887   4.304  -2.056  0.00  0.00    +0.000 A 
ATOM      2  C   UNL     1      -1.903   5.447  -1.274  0.00  0.00    +0.000 A 
ATOM      3  C   UNL     1      -1.565   6.627  -1.977  0.00  0.00    +0.000 A 
ATOM      4  C   UNL     1      -0.944   6.653  -3.142  0.00  0.00    +0.000 A 
ATOM      5  C   UNL     1      -0.903   5.475  -3.835  0.00  0.00    +0.000 A 
ATOM      6  C   UNL     1      -1.335   4.303  -3.264  0.00  0.00    +0.000 A 
ENDROOT
BRANCH   4   7
ATOM      7  C   UNL     1      -0.309   7.924  -3.683  0.00  0.00    +0.000 A 
ATOM      8  C   UNL     1       0.736   8.574  -3.048  0.00  0.00    +0.000 A 
ATOM      9  C   UNL     1       1.027   9.851  -3.584  0.00  0.00    +0.000 A 
ATOM     10  C   UNL     1       1.805  10.755  -2.776  0.00  0.00    +0.000 A 
ATOM     11  C   UNL     1       2.130  12.067  -3.274  0.00  0.00    +0.000 A 
ATOM     12  N   UNL     1       1.198  11.393  -5.377  0.00  0.00    +0.000 N 
ATOM     13  C   UNL     1       0.635  10.271  -4.773  0.00  0.00    +0.000 A 
ATOM     14  C   UNL     1      -0.353   9.546  -5.379  0.00  0.00    +0.000 A 
ATOM     15  C   UNL     1      -0.783   8.354  -4.847  0.00  0.00    +0.000 A 
ATOM     16 CL   UNL     1      -1.985   7.379  -5.725  0.00  0.00    +0.000 Cl
ATOM     17  H   UNL     1       0.874  11.694  -6.296  0.00  0.00    +0.000 HD
BRANCH  10  18
ATOM     18  C   UNL     1       2.283  10.324  -1.399  0.00  0.00    +0.000 C 
ATOM     19  O   UNL     1       2.970  11.122  -0.687  0.00  0.00    +0.000 OA
BRANCH  18  20
ATOM     20  O   UNL     1       1.963   9.031  -0.909  0.00  0.00    +0.000 OA
ATOM     21  H   UNL     1       2.278   8.747  -0.003  0.00  0.00    +0.000 HD
ENDBRANCH  18  20
ENDBRANCH  10  18
ENDBRANCH   4   7
BRANCH   1  22
ATOM     22  O   UNL     1      -2.406   3.060  -1.608  0.00  0.00    +0.000 OA
BRANCH  22  23
ATOM     23  C   UNL     1      -1.648   1.871  -1.779  0.00  0.00    +0.000 C 
BRANCH  23  24
ATOM     24  C   UNL     1      -1.383   1.648  -3.259  0.00  0.00    +0.000 C 
BRANCH  24  25
ATOM     25  C   UNL     1      -0.607   2.828  -3.819  0.00  0.00    +0.000 C 
BRANCH  25  30
ATOM     26  C   UNL     1       0.940  -0.015  -0.079  0.00  0.00    +0.000 C 
ATOM     27  N   UNL     1       0.450   0.806  -1.195  0.00  0.00    +0.000 N 
ATOM     28  C   UNL     1      -0.326   2.121  -1.093  0.00  0.00    +0.000 C 
ATOM     29  C   UNL     1       0.424   3.166  -1.716  0.00  0.00    +0.000 C 
ATOM     30  N   UNL     1       0.672   2.956  -3.107  0.00  0.00    +0.000 NA
ATOM     31  C   UNL     1       1.489   1.675  -3.291  0.00  0.00    +0.000 C 
ATOM     32  C   UNL     1       0.726   0.500  -2.671  0.00  0.00    +0.000 C 
ATOM     33  O   UNL     1       0.379  -0.559  -3.282  0.00  0.00    +0.000 OA
ENDBRANCH  25  30
ENDBRANCH  24  25
ENDBRANCH  23  24
ENDBRANCH  22  23
ENDBRANCH   1  22
TORSDOF 8
