
 OpenBabel03132512093D

 69 72  0  0  0  0  0  0  0  0999 V2000
    1.0646    0.0699    0.0307 C   0  0  0  0  0  0  0  0  0  0  0  0
    0.5579   -1.2702    0.5384 C   0  0  0  0  0  0  0  0  0  0  0  0
    1.0479   -1.4929    1.9063 N   0  0  0  0  0  0  0  0  0  0  0  0
    0.5579   -2.7889    2.3974 C   0  0  0  0  0  0  0  0  0  0  0  0
    1.0646   -3.8987    1.4907 C   0  0  0  0  0  0  0  0  0  0  0  0
    2.5179   -1.4929    1.9063 C   0  0  0  0  0  0  0  0  0  0  0  0
    3.0246   -2.6027    0.9996 C   0  0  0  0  0  0  0  0  0  0  0  0
    2.5346   -2.3799   -0.3683 N   0  0  0  0  0  0  0  0  0  0  0  0
    3.4898   -2.2004   -1.4711 C   0  0  0  0  0  0  0  0  0  0  0  0
    3.0662   -2.0078   -2.6537 O   0  0  0  0  0  0  0  0  0  0  0  0
    4.9842   -2.2450   -1.1969 C   0  0  0  0  0  0  0  0  0  0  0  0
    5.6377   -3.1661   -0.4163 C   0  0  0  0  0  0  0  0  0  0  0  0
    5.1323   -4.3525    0.3295 C   0  0  0  0  0  0  0  0  0  0  0  0
    6.9603   -2.8347   -0.4149 N   0  0  0  0  0  0  0  0  0  0  0  0
    7.1788   -1.7278   -1.1992 C   0  0  0  0  0  0  0  0  0  0  0  0
    8.5202   -1.0614   -1.4578 C   0  0  0  0  0  0  0  0  0  0  0  0
    9.5114   -1.7633   -2.0345 C   0  0  0  0  0  0  0  0  0  0  0  0
    9.2960   -3.1686   -2.4939 C   0  0  0  0  0  0  0  0  0  0  0  0
    8.2837   -3.8610   -2.3751 O   0  0  0  0  0  0  0  0  0  0  0  0
   10.4404   -3.5685   -3.1012 N   0  0  0  0  0  0  0  0  0  0  0  0
   11.4091   -2.5592   -3.0743 C   0  0  0  0  0  0  0  0  0  0  0  0
   10.8886   -1.4448   -2.4150 C   0  0  0  0  0  0  0  0  0  0  0  0
   11.7403   -0.3651   -2.2197 C   0  0  0  0  0  0  0  0  0  0  0  0
   13.0380   -0.4194   -2.7122 C   0  0  0  0  0  0  0  0  0  0  0  0
   13.5053   -1.5214   -3.4141 C   0  0  0  0  0  0  0  0  0  0  0  0
   12.6817   -2.6277   -3.5906 C   0  0  0  0  0  0  0  0  0  0  0  0
   13.1694   -3.8653   -4.3261 C   0  0  0  0  0  0  0  0  0  0  0  0
   12.5752   -4.3698   -5.4855 C   0  0  0  0  0  0  0  0  0  0  0  0
   13.0460   -5.5812   -5.9760 C   0  0  0  0  0  0  0  0  0  0  0  0
   14.0675   -6.2210   -5.3121 C   0  0  0  0  0  0  0  0  0  0  0  0
   14.6251   -5.7537   -4.1908 N   0  0  0  0  0  0  0  0  0  0  0  0
   14.1735   -4.5851   -3.7091 C   0  0  0  0  0  0  0  0  0  0  0  0
   14.7507   -4.0690   -2.5188 O   0  0  0  0  0  0  0  0  0  0  0  0
   14.2936   -2.8350   -1.9852 C   0  0  0  0  0  0  0  0  0  0  0  0
    5.9657   -1.3329   -1.7070 C   0  0  0  0  0  0  0  0  0  0  0  0
    5.6947   -0.1436   -2.5933 C   0  0  0  0  0  0  0  0  0  0  0  0
    0.7079    0.8512    0.6689 H   0  0  0  0  0  0  0  0  0  0  0  0
    0.7079    0.2321   -0.9650 H   0  0  0  0  0  0  0  0  0  0  0  0
    2.1346    0.0699    0.0307 H   0  0  0  0  0  0  0  0  0  0  0  0
   -0.5121   -1.2702    0.5384 H   0  0  0  0  0  0  0  0  0  0  0  0
    0.9146   -2.0514   -0.0998 H   0  0  0  0  0  0  0  0  0  0  0  0
    0.9146   -2.9510    3.3931 H   0  0  0  0  0  0  0  0  0  0  0  0
   -0.5121   -2.7889    2.3974 H   0  0  0  0  0  0  0  0  0  0  0  0
    2.1346   -3.8987    1.4907 H   0  0  0  0  0  0  0  0  0  0  0  0
    0.7079   -4.8421    1.8481 H   0  0  0  0  0  0  0  0  0  0  0  0
    0.7079   -3.7366    0.4950 H   0  0  0  0  0  0  0  0  0  0  0  0
    2.8746   -0.5495    1.5489 H   0  0  0  0  0  0  0  0  0  0  0  0
    2.8746   -1.6550    2.9020 H   0  0  0  0  0  0  0  0  0  0  0  0
    4.0946   -2.6027    0.9996 H   0  0  0  0  0  0  0  0  0  0  0  0
    2.6679   -3.5460    1.3571 H   0  0  0  0  0  0  0  0  0  0  0  0
    1.5317   -2.3500   -0.5522 H   0  0  0  0  0  0  0  0  0  0  0  0
    4.4076   -4.0380    1.0512 H   0  0  0  0  0  0  0  0  0  0  0  0
    4.6789   -5.0380   -0.3557 H   0  0  0  0  0  0  0  0  0  0  0  0
    5.9472   -4.8338    0.8287 H   0  0  0  0  0  0  0  0  0  0  0  0
    7.6855   -3.3377    0.0965 H   0  0  0  0  0  0  0  0  0  0  0  0
    8.6749   -0.0391   -1.1824 H   0  0  0  0  0  0  0  0  0  0  0  0
   10.5775   -4.4869   -3.5233 H   0  0  0  0  0  0  0  0  0  0  0  0
   11.3992    0.5021   -1.6938 H   0  0  0  0  0  0  0  0  0  0  0  0
   13.6939    0.4095   -2.5460 H   0  0  0  0  0  0  0  0  0  0  0  0
   14.4960   -1.5199   -3.8182 H   0  0  0  0  0  0  0  0  0  0  0  0
   11.7856   -3.8419   -5.9781 H   0  0  0  0  0  0  0  0  0  0  0  0
   12.6200   -6.0111   -6.8584 H   0  0  0  0  0  0  0  0  0  0  0  0
   14.4350   -7.1416   -5.7150 H   0  0  0  0  0  0  0  0  0  0  0  0
   14.4454   -2.0574   -2.7044 H   0  0  0  0  0  0  0  0  0  0  0  0
   13.2512   -2.9099   -1.7556 H   0  0  0  0  0  0  0  0  0  0  0  0
   14.8397   -2.6078   -1.0936 H   0  0  0  0  0  0  0  0  0  0  0  0
    5.2387   -0.4734   -3.5033 H   0  0  0  0  0  0  0  0  0  0  0  0
    5.0371    0.5339   -2.0899 H   0  0  0  0  0  0  0  0  0  0  0  0
    6.6162    0.3528   -2.8157 H   0  0  0  0  0  0  0  0  0  0  0  0
  1  2  1  0  0  0  0
  1 37  1  0  0  0  0
  1 38  1  0  0  0  0
  1 39  1  0  0  0  0
  2  3  1  0  0  0  0
  2 40  1  0  0  0  0
  2 41  1  0  0  0  0
  3  4  1  0  0  0  0
  3  6  1  0  0  0  0
  4  5  1  0  0  0  0
  4 42  1  0  0  0  0
  4 43  1  0  0  0  0
  5 44  1  0  0  0  0
  5 45  1  0  0  0  0
  5 46  1  0  0  0  0
  6  7  1  0  0  0  0
  6 47  1  0  0  0  0
  6 48  1  0  0  0  0
  7  8  1  0  0  0  0
  7 49  1  0  0  0  0
  7 50  1  0  0  0  0
  8  9  1  0  0  0  0
  8 51  1  0  0  0  0
  9 10  2  0  0  0  0
  9 11  1  0  0  0  0
 11 12  2  0  0  0  0
 11 35  1  0  0  0  0
 12 13  1  0  0  0  0
 12 14  1  0  0  0  0
 13 52  1  0  0  0  0
 13 53  1  0  0  0  0
 13 54  1  0  0  0  0
 14 15  1  0  0  0  0
 14 55  1  0  0  0  0
 15 16  1  0  0  0  0
 15 35  2  0  0  0  0
 16 17  2  0  0  0  0
 16 56  1  0  0  0  0
 17 18  1  0  0  0  0
 17 22  1  0  0  0  0
 18 19  2  0  0  0  0
 18 20  1  0  0  0  0
 20 21  1  0  0  0  0
 20 57  1  0  0  0  0
 21 22  1  0  0  0  0
 21 26  2  0  0  0  0
 22 23  2  0  0  0  0
 23 24  1  0  0  0  0
 23 58  1  0  0  0  0
 24 25  2  0  0  0  0
 24 59  1  0  0  0  0
 25 26  1  0  0  0  0
 25 60  1  0  0  0  0
 26 27  1  0  0  0  0
 27 28  1  0  0  0  0
 27 32  2  0  0  0  0
 28 29  2  0  0  0  0
 28 61  1  0  0  0  0
 29 30  1  0  0  0  0
 29 62  1  0  0  0  0
 30 31  2  0  0  0  0
 30 63  1  0  0  0  0
 31 32  1  0  0  0  0
 32 33  1  0  0  0  0
 33 34  1  0  0  0  0
 34 64  1  0  0  0  0
 34 65  1  0  0  0  0
 34 66  1  0  0  0  0
 35 36  1  0  0  0  0
 36 67  1  0  0  0  0
 36 68  1  0  0  0  0
 36 69  1  0  0  0  0
M  END
