REMARK  Name = 
REMARK  8 active torsions:
REMARK  status: ('A' for Active; 'I' for Inactive)
REMARK    1  A    between atoms: C_1  and  C_2
REMARK    2  A    between atoms: C_2  and  C_3
REMARK    3  A    between atoms: C_3  and  C_4
REMARK    4  A    between atoms: C_4  and  N_5
REMARK    5  A    between atoms: C_4  and  C_29
REMARK    6  A    between atoms: C_6  and  C_8
REMARK    7  A    between atoms: N_14  and  C_15
REMARK    8  A    between atoms: C_18  and  O_19
REMARK                            x       y       z     vdW  Elec       q    Type
REMARK                         _______ _______ _______ _____ _____    ______ ____
ROOT
ATOM      1  C   UNL     1      -0.994  -4.045  -3.578  0.00  0.00    +0.000 A 
ATOM      2  C   UNL     1       0.054  -4.670  -2.971  0.00  0.00    +0.000 A 
ATOM      3  C   UNL     1       0.706  -5.647  -3.615  0.00  0.00    +0.000 A 
ATOM      4  C   UNL     1       0.347  -6.043  -4.875  0.00  0.00    +0.000 A 
ATOM      5  N   UNL     1       1.085  -7.066  -5.474  0.00  0.00    +0.000 NA
ATOM      6  C   UNL     1       0.788  -7.503  -6.719  0.00  0.00    +0.000 A 
ATOM      7  N   UNL     1       1.584  -8.585  -7.316  0.00  0.00    +0.000 N 
ATOM      8  C   UNL     1      -0.268  -6.939  -7.447  0.00  0.00    +0.000 A 
ATOM      9  N   UNL     1      -0.695  -7.250  -8.680  0.00  0.00    +0.000 NA
ATOM     10  C   UNL     1      -1.707  -6.487  -8.994  0.00  0.00    +0.000 A 
ATOM     11  C   UNL     1      -1.982  -5.621  -7.933  0.00  0.00    +0.000 A 
ATOM     12  N   UNL     1      -1.070  -5.886  -6.914  0.00  0.00    +0.000 N 
ATOM     13  C   UNL     1      -0.739  -5.417  -5.560  0.00  0.00    +0.000 A 
ATOM     14  C   UNL     1      -1.401  -4.406  -4.867  0.00  0.00    +0.000 A 
ATOM     15  H   UNL     1       2.354  -9.001  -6.792  0.00  0.00    +0.000 HD
ENDROOT
BRANCH   7  16
ATOM     16  C   UNL     1       1.270  -9.069  -8.669  0.00  0.00    +0.000 C 
ATOM     17  C   UNL     1       1.413  -7.903  -9.636  0.00  0.00    +0.000 C 
ATOM     18  C   UNL     1       0.405  -6.791  -9.350  0.00  0.00    +0.000 C 
ATOM     19  C   UNL     1      -1.003  -7.386  -9.410  0.00  0.00    +0.000 C 
ATOM     20  C   UNL     1      -1.149  -8.528  -8.432  0.00  0.00    +0.000 C 
ATOM     21  C   UNL     1      -0.135  -9.634  -8.674  0.00  0.00    +0.000 C 
BRANCH  19  22
ATOM     22  O   UNL     1      -2.027  -6.445  -9.075  0.00  0.00    +0.000 OA
ATOM     23  H   UNL     1      -1.911  -6.150  -8.127  0.00  0.00    +0.000 HD
ENDBRANCH  19  22
ENDBRANCH   7  16
BRANCH   1  25
ATOM     24  N   UNL     1      -1.019  -2.083  -1.888  0.00  0.00    +0.000 N 
ATOM     25  C   UNL     1      -1.754  -3.047  -2.719  0.00  0.00    +0.000 C 
ATOM     26  O   UNL     1      -3.025  -3.047  -2.719  0.00  0.00    +0.000 OA
ATOM     27  H   UNL     1      -1.529  -1.413  -1.312  0.00  0.00    +0.000 HD
BRANCH  24  28
ATOM     28  C   UNL     1       0.451  -2.083  -1.888  0.00  0.00    +0.000 C 
BRANCH  28  29
ATOM     29  C   UNL     1       0.958  -3.168  -2.823  0.00  0.00    +0.000 A 
ATOM     30  C   UNL     1       1.447  -2.884  -4.129  0.00  0.00    +0.000 A 
ATOM     31  C   UNL     1       1.448  -3.898  -5.101  0.00  0.00    +0.000 A 
ATOM     32  C   UNL     1       1.267  -5.137  -4.748  0.00  0.00    +0.000 A 
ATOM     33  C   UNL     1       1.083  -5.463  -3.398  0.00  0.00    +0.000 A 
ATOM     34  C   UNL     1       0.780  -4.441  -2.466  0.00  0.00    +0.000 A 
ENDBRANCH  28  29
BRANCH  28  35
ATOM     35  C   UNL     1       0.958  -0.730  -2.361  0.00  0.00    +0.000 C 
BRANCH  35  37
ATOM     36  C   UNL     1       0.958   0.089  -0.018  0.00  0.00    +0.000 C 
ATOM     37  C   UNL     1       0.451   0.356  -1.425  0.00  0.00    +0.000 C 
ENDBRANCH  35  37
ENDBRANCH  28  35
ENDBRANCH  24  28
ENDBRANCH   1  25
TORSDOF 7
