REMARK  Name = 
REMARK  9 active torsions:
REMARK  status: ('A' for Active; 'I' for Inactive)
REMARK    1  A    between atoms: C_1  and  C_2
REMARK    2  A    between atoms: C_4  and  C_5
REMARK    3  A    between atoms: C_6  and  C_7
REMARK    4  A    between atoms: C_7  and  O_8
REMARK    5  A    between atoms: O_8  and  C_9
REMARK    6  A    between atoms: C_18  and  C_20
REMARK    7  A    between atoms: C_29  and  C_30
REMARK    8  A    between atoms: C_30  and  O_32
REMARK    9  A    between atoms: C_35  and  C_36
REMARK                            x       y       z     vdW  Elec       q    Type
REMARK                         _______ _______ _______ _____ _____    ______ ____
ROOT
ATOM      1  C   UNL     1       1.268   4.641  -4.321  0.00  0.00    +0.000 A 
ATOM      2  C   UNL     1       1.876   5.389  -5.309  0.00  0.00    +0.000 A 
ATOM      3  C   UNL     1       3.164   5.240  -5.574  0.00  0.00    +0.000 A 
ATOM      4  C   UNL     1       3.914   4.381  -4.905  0.00  0.00    +0.000 A 
ATOM      5  C   UNL     1       3.372   3.599  -3.903  0.00  0.00    +0.000 A 
ATOM      6  C   UNL     1       2.023   3.726  -3.603  0.00  0.00    +0.000 A 
ATOM      7  C   UNL     1       4.196   2.666  -3.180  0.00  0.00    +0.000 A 
ATOM      8  C   UNL     1       3.621   1.856  -2.137  0.00  0.00    +0.000 A 
ATOM      9  N   UNL     1       5.267   4.262  -5.215  0.00  0.00    +0.000 N 
ATOM     10  C   UNL     1       6.109   3.309  -4.477  0.00  0.00    +0.000 C 
ATOM     11  O   UNL     1       5.602   2.594  -3.556  0.00  0.00    +0.000 OA
ATOM     12  C   UNL     1       4.491   0.871  -1.373  0.00  0.00    +0.000 C 
ATOM     13  C   UNL     1       5.080  -0.142  -2.342  0.00  0.00    +0.000 C 
ATOM     14  C   UNL     1       5.924   0.581  -3.379  0.00  0.00    +0.000 C 
ATOM     15  C   UNL     1       5.672   2.535  -3.517  0.00  0.00    +0.000 C 
ENDROOT
BRANCH  10  16
ATOM     16  C   UNL     1       7.585   3.179  -4.814  0.00  0.00    +0.000 A 
ATOM     17  C   UNL     1       8.167   1.933  -4.937  0.00  0.00    +0.000 A 
ATOM     18  C   UNL     1       9.453   1.813  -5.230  0.00  0.00    +0.000 A 
ATOM     19  C   UNL     1      10.222   2.872  -5.421  0.00  0.00    +0.000 A 
ATOM     20 CL   UNL     1      11.942   2.648  -5.820  0.00  0.00    +0.000 Cl
ATOM     21  C   UNL     1       9.706   4.149  -5.314  0.00  0.00    +0.000 A 
ATOM     22  C   UNL     1       8.364   4.312  -5.003  0.00  0.00    +0.000 A 
ENDBRANCH  10  16
BRANCH  14  23
ATOM     23  C   UNL     1       6.513  -0.432  -4.348  0.00  0.00    +0.000 C 
ATOM     24  O   UNL     1       6.242  -0.358  -5.587  0.00  0.00    +0.000 OA
BRANCH  23  25
ATOM     25  O   UNL     1       7.365  -1.461  -3.868  0.00  0.00    +0.000 OA
ATOM     26  H   UNL     1       7.753  -2.127  -4.505  0.00  0.00    +0.000 HD
ENDBRANCH  23  25
ENDBRANCH  14  23
BRANCH   1  27
ATOM     27  O   UNL     1      -0.115   4.806  -4.042  0.00  0.00    +0.000 OA
BRANCH  27  28
ATOM     28  C   UNL     1      -0.563   4.897  -2.698  0.00  0.00    +0.000 C 
BRANCH  28  34
ATOM     29  C   UNL     1       0.971   0.079   0.055  0.00  0.00    +0.000 C 
ATOM     30  C   UNL     1       0.465   1.336  -0.632  0.00  0.00    +0.000 A 
ATOM     31  N   UNL     1      -0.352   1.333  -1.745  0.00  0.00    +0.000 NA
ATOM     32  C   UNL     1      -0.650   2.462  -2.369  0.00  0.00    +0.000 A 
ATOM     33  C   UNL     1      -1.547   2.417  -3.595  0.00  0.00    +0.000 C 
ATOM     34  C   UNL     1      -0.186   3.628  -1.951  0.00  0.00    +0.000 A 
ATOM     35  N   UNL     1       0.637   3.705  -0.844  0.00  0.00    +0.000 NA
ATOM     36  C   UNL     1       0.974   2.541  -0.170  0.00  0.00    +0.000 A 
ATOM     37  C   UNL     1       1.882   2.584   1.048  0.00  0.00    +0.000 C 
ENDBRANCH  28  34
ENDBRANCH  27  28
ENDBRANCH   1  27
TORSDOF 6
