
 OpenBabel03132512093D

 55 59  0  0  0  0  0  0  0  0999 V2000
    2.2460   -0.0770   -0.0310 N   0  0  0  0  0  0  0  0  0  0  0  0
    0.9190   -0.0780    0.0070 C   0  0  0  0  0  0  0  0  0  0  0  0
    0.1570   -1.2770    0.0470 C   0  0  0  0  0  0  0  0  0  0  0  0
   -1.2140   -1.1740   -0.0140 C   0  0  0  0  0  0  0  0  0  0  0  0
   -1.8330    0.0740   -0.0400 C   0  0  0  0  0  0  0  0  0  0  0  0
   -3.3449    0.1974   -0.1368 C   0  0  0  0  0  0  0  0  0  0  0  0
   -4.1110    0.8410   -1.1565 C   0  0  0  0  0  0  0  0  0  0  0  0
   -5.4606    0.7889   -0.9948 N   0  0  0  0  0  0  0  0  0  0  0  0
   -5.5786    0.0699    0.1853 N   0  0  0  0  0  0  0  0  0  0  0  0
   -6.7426   -0.2843    0.7945 C   0  0  0  0  0  0  0  0  0  0  0  0
   -6.6554   -1.0169    1.9791 C   0  0  0  0  0  0  0  0  0  0  0  0
   -7.9195   -1.4995    2.6716 C   0  0  0  0  0  0  0  0  0  0  0  0
   -8.8031   -2.3288    2.0008 C   0  0  0  0  0  0  0  0  0  0  0  0
  -10.0680   -2.4430    2.6244 C   0  0  0  0  0  0  0  0  0  0  0  0
  -10.3154   -2.1206    3.8809 C   0  0  0  0  0  0  0  0  0  0  0  0
  -11.4979   -2.5443    4.5432 O   0  0  0  0  0  0  0  0  0  0  0  0
  -11.7254   -2.1753    5.8954 C   0  0  0  0  0  0  0  0  0  0  0  0
  -10.6030   -2.7187    6.7645 C   0  0  0  0  0  0  0  0  0  0  0  0
   -9.3200   -2.1606    6.3135 N   0  0  0  0  0  0  0  0  0  0  0  0
   -8.9692   -0.9504    7.0790 C   0  0  0  0  0  0  0  0  0  0  0  0
   -9.8425    0.1991    6.6286 C   0  0  0  0  0  0  0  0  0  0  0  0
   -9.7007    0.4312    5.2273 O   0  0  0  0  0  0  0  0  0  0  0  0
  -10.0780   -0.7382    4.5001 C   0  0  0  0  0  0  0  0  0  0  0  0
   -9.1942   -1.9168    4.8624 C   0  0  0  0  0  0  0  0  0  0  0  0
   -9.3717   -1.3568    4.5099 C   0  0  0  0  0  0  0  0  0  0  0  0
   -8.1632   -1.0925    3.9118 C   0  0  0  0  0  0  0  0  0  0  0  0
   -5.3513   -1.3174    2.5490 C   0  0  0  0  0  0  0  0  0  0  0  0
   -4.2206   -0.9912    1.8924 N   0  0  0  0  0  0  0  0  0  0  0  0
   -4.2912   -0.2845    0.7369 C   0  0  0  0  0  0  0  0  0  0  0  0
   -1.0160    1.2140    0.0260 C   0  0  0  0  0  0  0  0  0  0  0  0
    0.3140    1.1420    0.0090 N   0  0  0  0  0  0  0  0  0  0  0  0
    2.7548    0.8067   -0.0567 H   0  0  0  0  0  0  0  0  0  0  0  0
    2.7568   -0.9599   -0.0345 H   0  0  0  0  0  0  0  0  0  0  0  0
    0.6350   -2.2313    0.1223 H   0  0  0  0  0  0  0  0  0  0  0  0
   -1.8108   -2.0616   -0.0418 H   0  0  0  0  0  0  0  0  0  0  0  0
   -3.6541    1.3308   -1.9910 H   0  0  0  0  0  0  0  0  0  0  0  0
   -7.6905   -0.0110    0.3803 H   0  0  0  0  0  0  0  0  0  0  0  0
   -8.5519   -2.8371    1.0933 H   0  0  0  0  0  0  0  0  0  0  0  0
  -10.8807   -2.8166    2.0371 H   0  0  0  0  0  0  0  0  0  0  0  0
  -11.7530   -1.1086    5.9743 H   0  0  0  0  0  0  0  0  0  0  0  0
  -12.6592   -2.5816    6.2237 H   0  0  0  0  0  0  0  0  0  0  0  0
  -10.7743   -2.4407    7.7835 H   0  0  0  0  0  0  0  0  0  0  0  0
  -10.5753   -3.7855    6.6857 H   0  0  0  0  0  0  0  0  0  0  0  0
   -7.9413   -0.7060    6.9102 H   0  0  0  0  0  0  0  0  0  0  0  0
   -9.1254   -1.1301    8.1222 H   0  0  0  0  0  0  0  0  0  0  0  0
  -10.8635   -0.0488    6.8314 H   0  0  0  0  0  0  0  0  0  0  0  0
   -9.5586    1.0832    7.1602 H   0  0  0  0  0  0  0  0  0  0  0  0
   -9.9661   -0.5387    3.4548 H   0  0  0  0  0  0  0  0  0  0  0  0
  -11.0945   -0.9800    4.7307 H   0  0  0  0  0  0  0  0  0  0  0  0
   -8.1759   -1.7056    4.6105 H   0  0  0  0  0  0  0  0  0  0  0  0
   -9.5082   -2.7846    4.3209 H   0  0  0  0  0  0  0  0  0  0  0  0
   -9.5773   -0.9592    5.4817 H   0  0  0  0  0  0  0  0  0  0  0  0
   -7.4117   -0.5539    4.4504 H   0  0  0  0  0  0  0  0  0  0  0  0
   -5.2891   -1.8029    3.5005 H   0  0  0  0  0  0  0  0  0  0  0  0
   -1.4790    2.1764    0.0924 H   0  0  0  0  0  0  0  0  0  0  0  0
  1  2  1  0  0  0  0
  1 32  1  0  0  0  0
  1 33  1  0  0  0  0
  2  3  1  0  0  0  0
  2 31  2  0  0  0  0
  3  4  2  0  0  0  0
  3 34  1  0  0  0  0
  4  5  1  0  0  0  0
  4 35  1  0  0  0  0
  5  6  1  0  0  0  0
  5 30  2  0  0  0  0
  6  7  1  0  0  0  0
  6 29  2  0  0  0  0
  7  8  2  0  0  0  0
  7 36  1  0  0  0  0
  8  9  1  0  0  0  0
  9 10  1  0  0  0  0
  9 29  1  0  0  0  0
 10 11  2  0  0  0  0
 10 37  1  0  0  0  0
 11 12  1  0  0  0  0
 11 27  1  0  0  0  0
 12 13  1  0  0  0  0
 12 26  2  0  0  0  0
 13 14  2  0  0  0  0
 13 38  1  0  0  0  0
 14 15  1  0  0  0  0
 14 39  1  0  0  0  0
 15 16  1  0  0  0  0
 15 25  2  0  0  0  0
 16 17  1  0  0  0  0
 17 18  1  0  0  0  0
 17 40  1  0  0  0  0
 17 41  1  0  0  0  0
 18 19  1  0  0  0  0
 18 42  1  0  0  0  0
 18 43  1  0  0  0  0
 19 20  1  0  0  0  0
 19 24  1  0  0  0  0
 20 21  1  0  0  0  0
 20 44  1  0  0  0  0
 20 45  1  0  0  0  0
 21 22  1  0  0  0  0
 21 46  1  0  0  0  0
 21 47  1  0  0  0  0
 22 23  1  0  0  0  0
 23 24  1  0  0  0  0
 23 48  1  0  0  0  0
 23 49  1  0  0  0  0
 24 50  1  0  0  0  0
 24 51  1  0  0  0  0
 25 26  1  0  0  0  0
 25 52  1  0  0  0  0
 26 53  1  0  0  0  0
 27 28  2  0  0  0  0
 27 54  1  0  0  0  0
 28 29  1  0  0  0  0
 30 31  1  0  0  0  0
 30 55  1  0  0  0  0
M  END
