
 OpenBabel03132512093D

 76 80  0  0  0  0  0  0  0  0999 V2000
    1.0464    0.0885    0.0030 C   0  0  0  0  0  0  0  0  0  0  0  0
    0.5398    0.9487    1.1492 C   0  0  0  0  0  0  0  0  0  0  0  0
    1.0297    2.3246    0.9830 N   0  0  0  0  0  0  0  0  0  0  0  0
    0.5397    3.1565    2.0915 C   0  0  0  0  0  0  0  0  0  0  0  0
    1.0464    2.5939    3.4095 C   0  0  0  0  0  0  0  0  0  0  0  0
    2.4997    2.3246    0.9830 C   0  0  0  0  0  0  0  0  0  0  0  0
    3.0064    1.7621    2.3010 C   0  0  0  0  0  0  0  0  0  0  0  0
    2.5164    0.3861    2.4672 N   0  0  0  0  0  0  0  0  0  0  0  0
    3.4717   -0.7231    2.6012 C   0  0  0  0  0  0  0  0  0  0  0  0
    3.0481   -1.9127    2.7448 O   0  0  0  0  0  0  0  0  0  0  0  0
    4.9661   -0.4474    2.5679 C   0  0  0  0  0  0  0  0  0  0  0  0
    5.6195    0.5585    3.2357 C   0  0  0  0  0  0  0  0  0  0  0  0
    5.1141    1.6045    4.1684 C   0  0  0  0  0  0  0  0  0  0  0  0
    6.9421    0.4680    2.9169 N   0  0  0  0  0  0  0  0  0  0  0  0
    7.1606   -0.5930    2.0714 C   0  0  0  0  0  0  0  0  0  0  0  0
    8.5020   -1.0264    1.5029 C   0  0  0  0  0  0  0  0  0  0  0  0
    9.5038   -1.3883    2.3233 C   0  0  0  0  0  0  0  0  0  0  0  0
    9.3033   -1.4585    3.8022 C   0  0  0  0  0  0  0  0  0  0  0  0
    8.2951   -1.1667    4.4478 O   0  0  0  0  0  0  0  0  0  0  0  0
   10.4563   -1.9292    4.3382 N   0  0  0  0  0  0  0  0  0  0  0  0
   11.4171   -2.1652    3.3487 C   0  0  0  0  0  0  0  0  0  0  0  0
   12.6950   -2.6357    3.5399 C   0  0  0  0  0  0  0  0  0  0  0  0
   13.5085   -2.7544    2.4186 C   0  0  0  0  0  0  0  0  0  0  0  0
   13.0264   -2.3745    1.1740 C   0  0  0  0  0  0  0  0  0  0  0  0
   11.7238   -1.9235    1.0033 C   0  0  0  0  0  0  0  0  0  0  0  0
   11.2231   -1.5348   -0.3783 C   0  0  0  0  0  0  0  0  0  0  0  0
   11.1551   -2.5195   -1.3501 C   0  0  0  0  0  0  0  0  0  0  0  0
   10.8791   -2.0265   -2.6474 C   0  0  0  0  0  0  0  0  0  0  0  0
   10.3746   -0.8332   -2.9035 C   0  0  0  0  0  0  0  0  0  0  0  0
    9.7869   -0.4868   -4.2618 C   0  0  0  0  0  0  0  0  0  0  0  0
    8.6746   -1.1867   -4.6993 C   0  0  0  0  0  0  0  0  0  0  0  0
    8.3462   -0.9515   -6.0554 C   0  0  0  0  0  0  0  0  0  0  0  0
    8.7814    0.0741   -6.7644 C   0  0  0  0  0  0  0  0  0  0  0  0
    9.8395    0.7670   -6.2451 C   0  0  0  0  0  0  0  0  0  0  0  0
   10.3016    0.5061   -4.9777 C   0  0  0  0  0  0  0  0  0  0  0  0
   10.4094    0.0739   -1.8810 C   0  0  0  0  0  0  0  0  0  0  0  0
   10.7925   -0.3014   -0.6161 C   0  0  0  0  0  0  0  0  0  0  0  0
   10.8821   -1.8302    2.1042 C   0  0  0  0  0  0  0  0  0  0  0  0
    5.9475   -1.1906    1.8332 C   0  0  0  0  0  0  0  0  0  0  0  0
    5.6766   -2.3725    0.9369 C   0  0  0  0  0  0  0  0  0  0  0  0
    0.6898    0.4845   -0.9249 H   0  0  0  0  0  0  0  0  0  0  0  0
    0.6898   -0.9130    0.1239 H   0  0  0  0  0  0  0  0  0  0  0  0
    2.1164    0.0885    0.0030 H   0  0  0  0  0  0  0  0  0  0  0  0
   -0.5302    0.9487    1.1492 H   0  0  0  0  0  0  0  0  0  0  0  0
    0.8964    0.5527    2.0770 H   0  0  0  0  0  0  0  0  0  0  0  0
    0.8964    4.1580    1.9705 H   0  0  0  0  0  0  0  0  0  0  0  0
   -0.5303    3.1565    2.0915 H   0  0  0  0  0  0  0  0  0  0  0  0
    2.1164    2.5939    3.4095 H   0  0  0  0  0  0  0  0  0  0  0  0
    0.6897    3.1995    4.2164 H   0  0  0  0  0  0  0  0  0  0  0  0
    0.6897    1.5924    3.5305 H   0  0  0  0  0  0  0  0  0  0  0  0
    2.8564    1.7191    0.1761 H   0  0  0  0  0  0  0  0  0  0  0  0
    2.8564    3.3262    0.8620 H   0  0  0  0  0  0  0  0  0  0  0  0
    4.0764    1.7621    2.3010 H   0  0  0  0  0  0  0  0  0  0  0  0
    2.6497    2.3676    3.1079 H   0  0  0  0  0  0  0  0  0  0  0  0
    1.5136    0.2011    2.4895 H   0  0  0  0  0  0  0  0  0  0  0  0
    4.3893    2.2103    3.6658 H   0  0  0  0  0  0  0  0  0  0  0  0
    4.6609    1.1366    5.0173 H   0  0  0  0  0  0  0  0  0  0  0  0
    5.9290    2.2178    4.4919 H   0  0  0  0  0  0  0  0  0  0  0  0
    7.6673    1.0990    3.2579 H   0  0  0  0  0  0  0  0  0  0  0  0
    8.6499   -1.0435    0.4433 H   0  0  0  0  0  0  0  0  0  0  0  0
   10.6042   -2.0906    5.3344 H   0  0  0  0  0  0  0  0  0  0  0  0
   13.0496   -2.9004    4.5141 H   0  0  0  0  0  0  0  0  0  0  0  0
   14.5030   -3.1373    2.5150 H   0  0  0  0  0  0  0  0  0  0  0  0
   13.6745   -2.4305    0.3245 H   0  0  0  0  0  0  0  0  0  0  0  0
   11.2982   -3.5586   -1.1390 H   0  0  0  0  0  0  0  0  0  0  0  0
   11.0942   -2.6649   -3.4787 H   0  0  0  0  0  0  0  0  0  0  0  0
    8.1145   -1.8455   -4.0691 H   0  0  0  0  0  0  0  0  0  0  0  0
    7.7002   -1.6534   -6.5401 H   0  0  0  0  0  0  0  0  0  0  0  0
    8.3303    0.3480   -7.6952 H   0  0  0  0  0  0  0  0  0  0  0  0
   10.3146    1.5235   -6.8342 H   0  0  0  0  0  0  0  0  0  0  0  0
   11.0832    1.1083   -4.5639 H   0  0  0  0  0  0  0  0  0  0  0  0
   10.1343    1.0908   -2.0687 H   0  0  0  0  0  0  0  0  0  0  0  0
   10.7435    0.4066    0.1847 H   0  0  0  0  0  0  0  0  0  0  0  0
    5.2207   -3.1551    1.5067 H   0  0  0  0  0  0  0  0  0  0  0  0
    5.0189   -2.0772    0.1464 H   0  0  0  0  0  0  0  0  0  0  0  0
    6.5981   -2.7239    0.5218 H   0  0  0  0  0  0  0  0  0  0  0  0
  1  2  1  0  0  0  0
  1 41  1  0  0  0  0
  1 42  1  0  0  0  0
  1 43  1  0  0  0  0
  2  3  1  0  0  0  0
  2 44  1  0  0  0  0
  2 45  1  0  0  0  0
  3  4  1  0  0  0  0
  3  6  1  0  0  0  0
  4  5  1  0  0  0  0
  4 46  1  0  0  0  0
  4 47  1  0  0  0  0
  5 48  1  0  0  0  0
  5 49  1  0  0  0  0
  5 50  1  0  0  0  0
  6  7  1  0  0  0  0
  6 51  1  0  0  0  0
  6 52  1  0  0  0  0
  7  8  1  0  0  0  0
  7 53  1  0  0  0  0
  7 54  1  0  0  0  0
  8  9  1  0  0  0  0
  8 55  1  0  0  0  0
  9 10  2  0  0  0  0
  9 11  1  0  0  0  0
 11 12  2  0  0  0  0
 11 39  1  0  0  0  0
 12 13  1  0  0  0  0
 12 14  1  0  0  0  0
 13 56  1  0  0  0  0
 13 57  1  0  0  0  0
 13 58  1  0  0  0  0
 14 15  1  0  0  0  0
 14 59  1  0  0  0  0
 15 16  1  0  0  0  0
 15 39  2  0  0  0  0
 16 17  2  0  0  0  0
 16 60  1  0  0  0  0
 17 18  1  0  0  0  0
 17 38  1  0  0  0  0
 18 19  2  0  0  0  0
 18 20  1  0  0  0  0
 20 21  1  0  0  0  0
 20 61  1  0  0  0  0
 21 22  1  0  0  0  0
 21 38  2  0  0  0  0
 22 23  2  0  0  0  0
 22 62  1  0  0  0  0
 23 24  1  0  0  0  0
 23 63  1  0  0  0  0
 24 25  2  0  0  0  0
 24 64  1  0  0  0  0
 25 26  1  0  0  0  0
 25 38  1  0  0  0  0
 26 27  1  0  0  0  0
 26 37  2  0  0  0  0
 27 28  2  0  0  0  0
 27 65  1  0  0  0  0
 28 29  1  0  0  0  0
 28 66  1  0  0  0  0
 29 30  1  0  0  0  0
 29 36  2  0  0  0  0
 30 31  1  0  0  0  0
 30 35  2  0  0  0  0
 31 32  2  0  0  0  0
 31 67  1  0  0  0  0
 32 33  1  0  0  0  0
 32 68  1  0  0  0  0
 33 34  2  0  0  0  0
 33 69  1  0  0  0  0
 34 35  1  0  0  0  0
 34 70  1  0  0  0  0
 35 71  1  0  0  0  0
 36 37  1  0  0  0  0
 36 72  1  0  0  0  0
 37 73  1  0  0  0  0
 39 40  1  0  0  0  0
 40 74  1  0  0  0  0
 40 75  1  0  0  0  0
 40 76  1  0  0  0  0
M  END
