
 OpenBabel03132512083D

 40 43  0  0  0  0  0  0  0  0999 V2000
    0.9612   -0.0611    0.0690 O   0  0  0  0  0  0  0  0  0  0  0  0
    2.2321   -0.0611    0.0690 C   0  0  0  0  0  0  0  0  0  0  0  0
    2.9421   -1.0810   -0.6181 O   0  0  0  0  0  0  0  0  0  0  0  0
    2.9921    1.0306    0.8045 C   0  0  0  0  0  0  0  0  0  0  0  0
    3.9850    1.7820    0.2195 C   0  0  0  0  0  0  0  0  0  0  0  0
    4.3789    2.7909    1.0577 N   0  0  0  0  0  0  0  0  0  0  0  0
    3.6768    2.6844    2.2361 C   0  0  0  0  0  0  0  0  0  0  0  0
    3.7951    3.4408    3.4071 C   0  0  0  0  0  0  0  0  0  0  0  0
    2.9958    3.0508    4.4631 C   0  0  0  0  0  0  0  0  0  0  0  0
    3.1073    3.9258    5.9694 Cl  0  0  0  0  0  0  0  0  0  0  0  0
    2.1103    1.9608    4.3966 C   0  0  0  0  0  0  0  0  0  0  0  0
    1.2726    1.5878    5.6089 C   0  0  0  0  0  0  0  0  0  0  0  0
    1.3679    0.3157    6.1485 C   0  0  0  0  0  0  0  0  0  0  0  0
    0.3121   -0.0132    7.0312 C   0  0  0  0  0  0  0  0  0  0  0  0
   -0.4927    0.8677    7.5973 C   0  0  0  0  0  0  0  0  0  0  0  0
   -1.3737    0.5028    8.7810 C   0  0  0  0  0  0  0  0  0  0  0  0
   -0.4166   -0.6176    9.1539 C   0  0  0  0  0  0  0  0  0  0  0  0
   -0.3265   -1.5406    8.0786 O   0  0  0  0  0  0  0  0  0  0  0  0
   -2.1054    1.6032    9.5523 C   0  0  0  0  0  0  0  0  0  0  0  0
   -2.8947    0.6333    8.6692 C   0  0  0  0  0  0  0  0  0  0  0  0
   -0.4907    2.1256    7.0615 C   0  0  0  0  0  0  0  0  0  0  0  0
    0.4251    2.4834    6.1017 C   0  0  0  0  0  0  0  0  0  0  0  0
    2.0007    1.2261    3.2267 C   0  0  0  0  0  0  0  0  0  0  0  0
    2.7847    1.5874    2.1164 C   0  0  0  0  0  0  0  0  0  0  0  0
    3.9421   -1.0810   -0.6181 H   0  0  0  0  0  0  0  0  0  0  0  0
    4.3923    1.6033   -0.7537 H   0  0  0  0  0  0  0  0  0  0  0  0
    5.0770    3.5031    0.8438 H   0  0  0  0  0  0  0  0  0  0  0  0
    4.4651    4.2720    3.4798 H   0  0  0  0  0  0  0  0  0  0  0  0
    2.1674   -0.3573    5.9188 H   0  0  0  0  0  0  0  0  0  0  0  0
    0.1547   -1.0474    7.2557 H   0  0  0  0  0  0  0  0  0  0  0  0
    0.5513   -0.2079    9.3543 H   0  0  0  0  0  0  0  0  0  0  0  0
   -0.7787   -1.1204   10.0262 H   0  0  0  0  0  0  0  0  0  0  0  0
   -1.2311   -1.9235    7.8913 H   0  0  0  0  0  0  0  0  0  0  0  0
   -2.1547    1.9034   10.5781 H   0  0  0  0  0  0  0  0  0  0  0  0
   -1.9958    2.6261    9.2582 H   0  0  0  0  0  0  0  0  0  0  0  0
   -3.5878    0.7389    7.8610 H   0  0  0  0  0  0  0  0  0  0  0  0
   -3.5292   -0.1027    9.1172 H   0  0  0  0  0  0  0  0  0  0  0  0
   -1.2128    2.8417    7.3943 H   0  0  0  0  0  0  0  0  0  0  0  0
    0.4557    3.4928    5.7482 H   0  0  0  0  0  0  0  0  0  0  0  0
    1.3287    0.3955    3.1688 H   0  0  0  0  0  0  0  0  0  0  0  0
  1  2  2  0  0  0  0
  2  3  1  0  0  0  0
  2  4  1  0  0  0  0
  3 25  1  0  0  0  0
  4  5  2  0  0  0  0
  4 24  1  0  0  0  0
  5  6  1  0  0  0  0
  5 26  1  0  0  0  0
  6  7  1  0  0  0  0
  6 27  1  0  0  0  0
  7  8  1  0  0  0  0
  7 24  2  0  0  0  0
  8  9  2  0  0  0  0
  8 28  1  0  0  0  0
  9 10  1  0  0  0  0
  9 11  1  0  0  0  0
 11 12  1  0  0  0  0
 11 23  2  0  0  0  0
 12 13  1  0  0  0  0
 12 22  2  0  0  0  0
 13 14  2  0  0  0  0
 13 29  1  0  0  0  0
 14 15  1  0  0  0  0
 14 30  1  0  0  0  0
 15 16  1  0  0  0  0
 15 21  2  0  0  0  0
 16 17  1  0  0  0  0
 16 19  1  0  0  0  0
 16 20  1  0  0  0  0
 17 18  1  0  0  0  0
 17 31  1  0  0  0  0
 17 32  1  0  0  0  0
 18 33  1  0  0  0  0
 19 20  1  0  0  0  0
 19 34  1  0  0  0  0
 19 35  1  0  0  0  0
 20 36  1  0  0  0  0
 20 37  1  0  0  0  0
 21 22  1  0  0  0  0
 21 38  1  0  0  0  0
 22 39  1  0  0  0  0
 23 24  1  0  0  0  0
 23 40  1  0  0  0  0
M  END
