
 OpenBabel03132512093D

 27 29  0  0  0  0  0  0  0  0999 V2000
   -2.0820    0.0010    0.0050 Cl  0  0  0  0  0  0  0  0  0  0  0  0
   -0.3450   -0.0070    0.0030 C   0  0  0  0  0  0  0  0  0  0  0  0
    0.3290   -1.2190   -0.0190 C   0  0  0  0  0  0  0  0  0  0  0  0
    1.7230   -1.1990    0.0020 C   0  0  0  0  0  0  0  0  0  0  0  0
    2.4070    0.0060    0.0170 C   0  0  0  0  0  0  0  0  0  0  0  0
    1.7120    1.2100   -0.0020 C   0  0  0  0  0  0  0  0  0  0  0  0
    2.4457    2.4838   -0.0094 N   0  0  0  0  0  0  0  0  0  0  0  0
    2.3522    3.3978    0.8904 N   0  0  0  0  0  0  0  0  0  0  0  0
    3.1385    4.3943    0.5874 N   0  0  0  0  0  0  0  0  0  0  0  0
    3.7519    4.0847   -0.5807 C   0  0  0  0  0  0  0  0  0  0  0  0
    3.2907    2.8593   -0.9304 C   0  0  0  0  0  0  0  0  0  0  0  0
    3.6848    2.0682   -2.1670 C   0  0  0  0  0  0  0  0  0  0  0  0
    5.0244    1.7154   -2.3485 C   0  0  0  0  0  0  0  0  0  0  0  0
    5.3657    0.8446   -3.3646 C   0  0  0  0  0  0  0  0  0  0  0  0
    4.4590    0.3307   -4.2104 N   0  0  0  0  0  0  0  0  0  0  0  0
    3.1818    0.6886   -4.0452 C   0  0  0  0  0  0  0  0  0  0  0  0
    2.7521    1.5298   -3.0445 C   0  0  0  0  0  0  0  0  0  0  0  0
    0.3210    1.2070   -0.0140 C   0  0  0  0  0  0  0  0  0  0  0  0
   -0.2066   -2.1448   -0.0512 H   0  0  0  0  0  0  0  0  0  0  0  0
    2.2680   -2.1198    0.0066 H   0  0  0  0  0  0  0  0  0  0  0  0
    3.4767    0.0099    0.0434 H   0  0  0  0  0  0  0  0  0  0  0  0
    4.4565    4.6851   -1.1173 H   0  0  0  0  0  0  0  0  0  0  0  0
    5.7797    2.1166   -1.7056 H   0  0  0  0  0  0  0  0  0  0  0  0
    6.3928    0.5689   -3.4821 H   0  0  0  0  0  0  0  0  0  0  0  0
    2.4547    0.3002   -4.7273 H   0  0  0  0  0  0  0  0  0  0  0  0
    1.7135    1.7661   -2.9437 H   0  0  0  0  0  0  0  0  0  0  0  0
   -0.2250    2.1270   -0.0360 H   0  0  0  0  0  0  0  0  0  0  0  0
  1  2  1  0  0  0  0
  2  3  1  0  0  0  0
  2 18  2  0  0  0  0
  3  4  2  0  0  0  0
  3 19  1  0  0  0  0
  4  5  1  0  0  0  0
  4 20  1  0  0  0  0
  5  6  2  0  0  0  0
  5 21  1  0  0  0  0
  6  7  1  0  0  0  0
  6 18  1  0  0  0  0
  7  8  1  0  0  0  0
  7 11  1  0  0  0  0
  8  9  2  0  0  0  0
  9 10  1  0  0  0  0
 10 11  2  0  0  0  0
 10 22  1  0  0  0  0
 11 12  1  0  0  0  0
 12 13  1  0  0  0  0
 12 17  2  0  0  0  0
 13 14  2  0  0  0  0
 13 23  1  0  0  0  0
 14 15  1  0  0  0  0
 14 24  1  0  0  0  0
 15 16  2  0  0  0  0
 16 17  1  0  0  0  0
 16 25  1  0  0  0  0
 17 26  1  0  0  0  0
 18 27  1  0  0  0  0
M  END
