
 OpenBabel03132514253D

 43 46  0  0  0  0  0  0  0  0999 V2000
    0.9780   -0.0764   -0.0606 C   0  0  0  0  0  0  0  0  0  0  0  0
    0.4713    1.3044    0.3229 C   0  0  0  0  0  0  0  0  0  0  0  0
    1.1641    2.3852   -0.1747 C   0  0  0  0  0  0  0  0  0  0  0  0
    0.7932    3.6748    0.1884 C   0  0  0  0  0  0  0  0  0  0  0  0
    1.2761    4.9287   -0.1262 N   0  0  0  0  0  0  0  0  0  0  0  0
    0.5064    5.8903    0.5353 C   0  0  0  0  0  0  0  0  0  0  0  0
   -0.4228    5.3143    1.2404 C   0  0  0  0  0  0  0  0  0  0  0  0
   -1.4598    6.0188    2.0998 C   0  0  0  0  0  0  0  0  0  0  0  0
   -1.4676    7.2875    2.1742 O   0  0  0  0  0  0  0  0  0  0  0  0
   -2.4199    5.2594    2.8195 O   0  0  0  0  0  0  0  0  0  0  0  0
   -0.2929    3.8693    1.0598 C   0  0  0  0  0  0  0  0  0  0  0  0
   -0.9929    2.7651    1.5554 C   0  0  0  0  0  0  0  0  0  0  0  0
   -0.6109    1.4915    1.1831 C   0  0  0  0  0  0  0  0  0  0  0  0
   -1.3731    0.2879    1.7129 C   0  0  0  0  0  0  0  0  0  0  0  0
   -0.6417   -0.6630    2.4778 C   0  0  0  0  0  0  0  0  0  0  0  0
   -1.2231   -1.9083    2.7672 C   0  0  0  0  0  0  0  0  0  0  0  0
   -2.4977   -2.0900    2.5828 C   0  0  0  0  0  0  0  0  0  0  0  0
   -3.1233   -3.4417    2.8855 C   0  0  0  0  0  0  0  0  0  0  0  0
   -1.9022   -3.7017    3.7525 C   0  0  0  0  0  0  0  0  0  0  0  0
   -0.7310   -3.6374    2.9521 O   0  0  0  0  0  0  0  0  0  0  0  0
   -4.6441   -3.3487    2.7457 C   0  0  0  0  0  0  0  0  0  0  0  0
   -3.8927   -4.5424    2.1510 C   0  0  0  0  0  0  0  0  0  0  0  0
   -3.2948   -1.0411    2.1054 C   0  0  0  0  0  0  0  0  0  0  0  0
   -2.6813    0.0989    1.5316 C   0  0  0  0  0  0  0  0  0  0  0  0
    0.6213   -0.3287   -1.0373 H   0  0  0  0  0  0  0  0  0  0  0  0
    0.6213   -0.7962    0.6463 H   0  0  0  0  0  0  0  0  0  0  0  0
    2.0480   -0.0764   -0.0606 H   0  0  0  0  0  0  0  0  0  0  0  0
    1.9876    2.2325   -0.8406 H   0  0  0  0  0  0  0  0  0  0  0  0
    2.0663    5.1224   -0.7414 H   0  0  0  0  0  0  0  0  0  0  0  0
    0.6595    6.9474    0.4709 H   0  0  0  0  0  0  0  0  0  0  0  0
   -3.1022    5.7229    3.3848 H   0  0  0  0  0  0  0  0  0  0  0  0
   -1.8199    2.9062    2.2195 H   0  0  0  0  0  0  0  0  0  0  0  0
    0.3421   -0.4316    2.8292 H   0  0  0  0  0  0  0  0  0  0  0  0
   -0.6173   -2.7078    3.1395 H   0  0  0  0  0  0  0  0  0  0  0  0
   -1.8483   -2.9620    4.5237 H   0  0  0  0  0  0  0  0  0  0  0  0
   -1.9791   -4.6731    4.1947 H   0  0  0  0  0  0  0  0  0  0  0  0
   -0.7814   -4.3287    2.2314 H   0  0  0  0  0  0  0  0  0  0  0  0
   -5.4608   -3.2322    3.4272 H   0  0  0  0  0  0  0  0  0  0  0  0
   -5.0781   -2.6142    2.1000 H   0  0  0  0  0  0  0  0  0  0  0  0
   -3.8310   -4.9911    1.1816 H   0  0  0  0  0  0  0  0  0  0  0  0
   -3.9925   -5.5117    2.5931 H   0  0  0  0  0  0  0  0  0  0  0  0
   -4.3609   -1.1013    2.1740 H   0  0  0  0  0  0  0  0  0  0  0  0
   -3.2576    0.7976    0.9618 H   0  0  0  0  0  0  0  0  0  0  0  0
  1  2  1  0  0  0  0
  1 25  1  0  0  0  0
  1 26  1  0  0  0  0
  1 27  1  0  0  0  0
  2  3  1  0  0  0  0
  2 13  2  0  0  0  0
  3  4  2  0  0  0  0
  3 28  1  0  0  0  0
  4  5  1  0  0  0  0
  4 11  1  0  0  0  0
  5  6  1  0  0  0  0
  5 29  1  0  0  0  0
  6  7  2  0  0  0  0
  6 30  1  0  0  0  0
  7  8  1  0  0  0  0
  7 11  1  0  0  0  0
  8  9  2  0  0  0  0
  8 10  1  0  0  0  0
 10 31  1  0  0  0  0
 11 12  2  0  0  0  0
 12 13  1  0  0  0  0
 12 32  1  0  0  0  0
 13 14  1  0  0  0  0
 14 15  1  0  0  0  0
 14 24  2  0  0  0  0
 15 16  2  0  0  0  0
 15 33  1  0  0  0  0
 16 17  1  0  0  0  0
 16 34  1  0  0  0  0
 17 18  1  0  0  0  0
 17 23  2  0  0  0  0
 18 19  1  0  0  0  0
 18 21  1  0  0  0  0
 18 22  1  0  0  0  0
 19 20  1  0  0  0  0
 19 35  1  0  0  0  0
 19 36  1  0  0  0  0
 20 37  1  0  0  0  0
 21 22  1  0  0  0  0
 21 38  1  0  0  0  0
 21 39  1  0  0  0  0
 22 40  1  0  0  0  0
 22 41  1  0  0  0  0
 23 24  1  0  0  0  0
 23 42  1  0  0  0  0
 24 43  1  0  0  0  0
M  END
