REMARK  Name = 
REMARK  11 active torsions:
REMARK  status: ('A' for Active; 'I' for Inactive)
REMARK    1  A    between atoms: C_1  and  C_2
REMARK    2  A    between atoms: C_2  and  C_3
REMARK    3  A    between atoms: C_2  and  C_5
REMARK    4  A    between atoms: C_2  and  C_7
REMARK    5  A    between atoms: C_3  and  O_4
REMARK    6  A    between atoms: C_5  and  O_6
REMARK    7  A    between atoms: C_10  and  C_11
REMARK    8  A    between atoms: C_14  and  C_15
REMARK    9  A    between atoms: C_19  and  O_20
REMARK   10  A    between atoms: O_20  and  C_21
REMARK   11  A    between atoms: C_25  and  O_26
REMARK                            x       y       z     vdW  Elec       q    Type
REMARK                         _______ _______ _______ _____ _____    ______ ____
ROOT
ATOM      1  C   UNL     1       2.725  -8.441  -6.495  0.00  0.00    +0.000 A 
ATOM      2  N   UNL     1       2.196  -8.183  -7.745  0.00  0.00    +0.000 NA
ATOM      3  C   UNL     1       2.292  -9.151  -8.749  0.00  0.00    +0.000 A 
ATOM      4  N   UNL     1       1.855  -9.209 -10.143  0.00  0.00    +0.000 NA
ATOM      5  C   UNL     1       2.209 -10.365 -10.624  0.00  0.00    +0.000 A 
ATOM      6  N   UNL     1       2.868 -11.115  -9.645  0.00  0.00    +0.000 N 
ATOM      7  C   UNL     1       2.926 -10.377  -8.480  0.00  0.00    +0.000 A 
ATOM      8  C   UNL     1       3.453 -10.618  -7.217  0.00  0.00    +0.000 A 
ATOM      9  C   UNL     1       3.358  -9.657  -6.236  0.00  0.00    +0.000 A 
ATOM     10 CL   UNL     1       4.048  -9.967  -4.625  0.00  0.00    +0.000 Cl
ATOM     11  H   UNL     1       3.244 -12.054  -9.771  0.00  0.00    +0.000 HD
ENDROOT
BRANCH   1  15
ATOM     12  C   UNL     1       2.081  -5.566  -3.403  0.00  0.00    +0.000 A 
ATOM     13  C   UNL     1       0.997  -5.989  -4.154  0.00  0.00    +0.000 A 
ATOM     14  C   UNL     1       1.277  -7.092  -4.994  0.00  0.00    +0.000 A 
ATOM     15  C   UNL     1       2.490  -7.482  -5.340  0.00  0.00    +0.000 A 
ATOM     16  C   UNL     1       3.525  -6.976  -4.602  0.00  0.00    +0.000 A 
ATOM     17  C   UNL     1       3.311  -5.989  -3.671  0.00  0.00    +0.000 A 
BRANCH  12  21
ATOM     18  C   UNL     1       1.014  -2.498  -0.629  0.00  0.00    +0.000 A 
ATOM     19  C   UNL     1       0.413  -3.741  -0.510  0.00  0.00    +0.000 A 
ATOM     20  C   UNL     1       0.992  -4.738  -1.329  0.00  0.00    +0.000 A 
ATOM     21  C   UNL     1       1.769  -4.496  -2.370  0.00  0.00    +0.000 A 
ATOM     22  C   UNL     1       2.276  -3.230  -2.467  0.00  0.00    +0.000 A 
ATOM     23  C   UNL     1       1.857  -2.233  -1.620  0.00  0.00    +0.000 A 
BRANCH  18  25
ATOM     24  C   UNL     1       1.014  -0.084  -0.052  0.00  0.00    +0.000 C 
ATOM     25  C   UNL     1       0.507  -1.458   0.356  0.00  0.00    +0.000 C 
BRANCH  25  26
ATOM     26  C   UNL     1       1.014  -1.791   1.750  0.00  0.00    +0.000 C 
BRANCH  26  27
ATOM     27  O   UNL     1       0.540  -0.819   2.670  0.00  0.00    +0.000 OA
ATOM     28  H   UNL     1       0.874   0.085   2.402  0.00  0.00    +0.000 HD
ENDBRANCH  26  27
ENDBRANCH  25  26
BRANCH  25  29
ATOM     29  C   UNL     1      -1.013  -1.458   0.356  0.00  0.00    +0.000 C 
BRANCH  29  30
ATOM     30  O   UNL     1      -1.486  -1.147  -0.946  0.00  0.00    +0.000 OA
ATOM     31  H   UNL     1      -1.153  -0.243  -1.215  0.00  0.00    +0.000 HD
ENDBRANCH  29  30
ENDBRANCH  25  29
ENDBRANCH  18  25
ENDBRANCH  12  21
ENDBRANCH   1  15
BRANCH   5  32
ATOM     32  O   UNL     1       1.962 -10.802 -11.953  0.00  0.00    +0.000 OA
BRANCH  32  33
ATOM     33  C   UNL     1       1.282  -9.953 -12.865  0.00  0.00    +0.000 C 
ATOM     34  C   UNL     1       1.976  -8.814 -13.023  0.00  0.00    +0.000 C 
ATOM     35  O   UNL     1       1.555  -7.841 -12.027  0.00  0.00    +0.000 OA
ATOM     36  C   UNL     1       0.134  -8.248 -11.592  0.00  0.00    +0.000 C 
ATOM     37  C   UNL     1      -0.869  -7.295 -12.210  0.00  0.00    +0.000 C 
ATOM     38  C   UNL     1      -1.114  -7.739 -13.473  0.00  0.00    +0.000 C 
ATOM     39  O   UNL     1      -0.997  -9.189 -13.520  0.00  0.00    +0.000 OA
ATOM     40  C   UNL     1      -0.093  -9.592 -12.339  0.00  0.00    +0.000 C 
BRANCH  37  41
ATOM     41  O   UNL     1      -0.361  -5.968 -12.229  0.00  0.00    +0.000 OA
ATOM     42  H   UNL     1       0.487  -5.943 -12.758  0.00  0.00    +0.000 HD
ENDBRANCH  37  41
ENDBRANCH  32  33
ENDBRANCH   5  32
TORSDOF 10
