
 OpenBabel03132512083D

 65 71  0  0  0  0  0  0  0  0999 V2000
    1.0000    0.0202   -0.0979 O   0  0  0  0  0  0  0  0  0  0  0  0
    2.2709    0.0202   -0.0979 C   0  0  0  0  0  0  0  0  0  0  0  0
    2.9809    0.6257    0.9724 O   0  0  0  0  0  0  0  0  0  0  0  0
    3.0309   -0.6280   -1.2437 C   0  0  0  0  0  0  0  0  0  0  0  0
    2.8513   -2.1786   -1.2453 C   0  0  0  0  0  0  0  0  0  0  0  0
    4.0353   -2.6445   -0.3742 C   0  0  0  0  0  0  0  0  0  0  0  0
    5.0185   -1.4593   -0.5643 C   0  0  0  0  0  0  0  0  0  0  0  0
    6.5024   -1.5381   -0.2447 C   0  0  0  0  0  0  0  0  0  0  0  0
    7.0400   -0.6816    0.7019 C   0  0  0  0  0  0  0  0  0  0  0  0
    8.4544   -0.6430    0.7027 C   0  0  0  0  0  0  0  0  0  0  0  0
    9.2289   -1.5581    0.1488 C   0  0  0  0  0  0  0  0  0  0  0  0
   10.7124   -1.6506    0.4666 C   0  0  0  0  0  0  0  0  0  0  0  0
   11.1147   -1.8765    1.7726 C   0  0  0  0  0  0  0  0  0  0  0  0
   12.4940   -1.6523    1.9945 C   0  0  0  0  0  0  0  0  0  0  0  0
   13.4059   -1.5924    1.0412 C   0  0  0  0  0  0  0  0  0  0  0  0
   14.8917   -1.6909    1.3468 C   0  0  0  0  0  0  0  0  0  0  0  0
   15.3940   -2.8220    1.9590 N   0  0  0  0  0  0  0  0  0  0  0  0
   16.7603   -2.9049    2.2437 C   0  0  0  0  0  0  0  0  0  0  0  0
   17.6045   -3.9232    2.8664 N   0  0  0  0  0  0  0  0  0  0  0  0
   18.8261   -3.4762    2.8797 C   0  0  0  0  0  0  0  0  0  0  0  0
   19.9427   -4.1786    3.4053 O   0  0  0  0  0  0  0  0  0  0  0  0
   19.7676   -5.4695    3.9705 C   0  0  0  0  0  0  0  0  0  0  0  0
   19.2708   -6.3737    3.1111 C   0  0  0  0  0  0  0  0  0  0  0  0
   17.8186   -6.3846    3.1973 O   0  0  0  0  0  0  0  0  0  0  0  0
   17.4589   -5.8309    4.5893 C   0  0  0  0  0  0  0  0  0  0  0  0
   17.0143   -6.9721    5.4801 C   0  0  0  0  0  0  0  0  0  0  0  0
   16.2496   -7.9185    4.7480 O   0  0  0  0  0  0  0  0  0  0  0  0
   18.1415   -7.5445    5.9854 C   0  0  0  0  0  0  0  0  0  0  0  0
   19.1813   -6.5389    6.1422 O   0  0  0  0  0  0  0  0  0  0  0  0
   18.8373   -5.3992    5.1646 C   0  0  0  0  0  0  0  0  0  0  0  0
   18.8808   -2.2044    2.3017 N   0  0  0  0  0  0  0  0  0  0  0  0
   17.6111   -1.8382    1.9042 C   0  0  0  0  0  0  0  0  0  0  0  0
   17.0877   -0.7077    1.2874 C   0  0  0  0  0  0  0  0  0  0  0  0
   15.7415   -0.6381    1.0068 C   0  0  0  0  0  0  0  0  0  0  0  0
   15.0803    0.8065    0.2041 Cl  0  0  0  0  0  0  0  0  0  0  0  0
   12.9418   -1.4371   -0.2355 C   0  0  0  0  0  0  0  0  0  0  0  0
   11.5983   -1.5130   -0.5130 C   0  0  0  0  0  0  0  0  0  0  0  0
    8.6245   -2.4179   -0.7258 C   0  0  0  0  0  0  0  0  0  0  0  0
    7.2590   -2.4265   -0.8785 C   0  0  0  0  0  0  0  0  0  0  0  0
    4.4468   -0.4080   -1.0190 N   0  0  0  0  0  0  0  0  0  0  0  0
    3.9809    0.6257    0.9724 H   0  0  0  0  0  0  0  0  0  0  0  0
    2.6668   -0.2093   -2.1586 H   0  0  0  0  0  0  0  0  0  0  0  0
    1.8978   -2.5009   -0.8822 H   0  0  0  0  0  0  0  0  0  0  0  0
    2.9189   -2.5759   -2.2365 H   0  0  0  0  0  0  0  0  0  0  0  0
    3.7819   -2.8514    0.6445 H   0  0  0  0  0  0  0  0  0  0  0  0
    4.4511   -3.5628   -0.7331 H   0  0  0  0  0  0  0  0  0  0  0  0
    6.4400   -0.1018    1.3718 H   0  0  0  0  0  0  0  0  0  0  0  0
    8.9295    0.1852    1.1856 H   0  0  0  0  0  0  0  0  0  0  0  0
   10.4433   -2.1919    2.5437 H   0  0  0  0  0  0  0  0  0  0  0  0
   12.8209   -1.5223    3.0050 H   0  0  0  0  0  0  0  0  0  0  0  0
   20.7477   -5.7907    4.2553 H   0  0  0  0  0  0  0  0  0  0  0  0
   19.5651   -6.1158    2.1152 H   0  0  0  0  0  0  0  0  0  0  0  0
   19.6491   -7.3439    3.3572 H   0  0  0  0  0  0  0  0  0  0  0  0
   16.7072   -5.0710    4.5395 H   0  0  0  0  0  0  0  0  0  0  0  0
   16.4024   -6.6007    6.2754 H   0  0  0  0  0  0  0  0  0  0  0  0
   16.8001   -8.2821    3.9964 H   0  0  0  0  0  0  0  0  0  0  0  0
   18.4837   -8.3022    5.3119 H   0  0  0  0  0  0  0  0  0  0  0  0
   17.9220   -7.9791    6.9382 H   0  0  0  0  0  0  0  0  0  0  0  0
   18.8817   -4.4399    5.6366 H   0  0  0  0  0  0  0  0  0  0  0  0
   19.7226   -1.6390    2.1916 H   0  0  0  0  0  0  0  0  0  0  0  0
   17.7307    0.1081    1.0307 H   0  0  0  0  0  0  0  0  0  0  0  0
   13.6348   -1.2538   -1.0299 H   0  0  0  0  0  0  0  0  0  0  0  0
   11.2627   -1.4607   -1.5277 H   0  0  0  0  0  0  0  0  0  0  0  0
    9.2235   -3.0938   -1.2996 H   0  0  0  0  0  0  0  0  0  0  0  0
    6.8011   -3.1556   -1.5138 H   0  0  0  0  0  0  0  0  0  0  0  0
  1  2  2  0  0  0  0
  2  3  1  0  0  0  0
  2  4  1  0  0  0  0
  3 41  1  0  0  0  0
  4  5  1  0  0  0  0
  4 40  1  0  0  0  0
  4 42  1  0  0  0  0
  5  6  1  0  0  0  0
  5 43  1  0  0  0  0
  5 44  1  0  0  0  0
  6  7  1  0  0  0  0
  6 45  1  0  0  0  0
  6 46  1  0  0  0  0
  7  8  1  0  0  0  0
  7 40  2  0  0  0  0
  8  9  1  0  0  0  0
  8 39  2  0  0  0  0
  9 10  2  0  0  0  0
  9 47  1  0  0  0  0
 10 11  1  0  0  0  0
 10 48  1  0  0  0  0
 11 12  1  0  0  0  0
 11 38  2  0  0  0  0
 12 13  1  0  0  0  0
 12 37  2  0  0  0  0
 13 14  2  0  0  0  0
 13 49  1  0  0  0  0
 14 15  1  0  0  0  0
 14 50  1  0  0  0  0
 15 16  1  0  0  0  0
 15 36  2  0  0  0  0
 16 17  1  0  0  0  0
 16 34  2  0  0  0  0
 17 18  2  0  0  0  0
 18 19  1  0  0  0  0
 18 32  1  0  0  0  0
 19 20  2  0  0  0  0
 20 21  1  0  0  0  0
 20 31  1  0  0  0  0
 21 22  1  0  0  0  0
 22 23  1  0  0  0  0
 22 30  1  0  0  0  0
 22 51  1  0  0  0  0
 23 24  1  0  0  0  0
 23 52  1  0  0  0  0
 23 53  1  0  0  0  0
 24 25  1  0  0  0  0
 25 26  1  0  0  0  0
 25 30  1  0  0  0  0
 25 54  1  0  0  0  0
 26 27  1  0  0  0  0
 26 28  1  0  0  0  0
 26 55  1  0  0  0  0
 27 56  1  0  0  0  0
 28 29  1  0  0  0  0
 28 57  1  0  0  0  0
 28 58  1  0  0  0  0
 29 30  1  0  0  0  0
 30 59  1  0  0  0  0
 31 32  1  0  0  0  0
 31 60  1  0  0  0  0
 32 33  2  0  0  0  0
 33 34  1  0  0  0  0
 33 61  1  0  0  0  0
 34 35  1  0  0  0  0
 36 37  1  0  0  0  0
 36 62  1  0  0  0  0
 37 63  1  0  0  0  0
 38 39  1  0  0  0  0
 38 64  1  0  0  0  0
 39 65  1  0  0  0  0
M  END
