
 OpenBabel03132512083D

 64 69  0  0  0  0  0  0  0  0999 V2000
    1.0210    0.0742   -0.0636 C   0  0  0  0  0  0  0  0  0  0  0  0
    0.5310   -1.1006   -0.7989 N   0  0  0  0  0  0  0  0  0  0  0  0
    0.9115   -1.2960   -2.3149 S   0  0  0  0  0  0  0  0  0  0  0  0
    0.3928   -0.1080   -3.1283 O   0  0  0  0  0  0  0  0  0  0  0  0
    2.6616   -1.3954   -2.4723 N   0  0  0  0  0  0  0  0  0  0  0  0
    3.0168   -1.5778   -3.8871 C   0  0  0  0  0  0  0  0  0  0  0  0
    0.1624   -2.8235   -2.9329 C   0  0  0  0  0  0  0  0  0  0  0  0
   -1.0359   -2.8446   -3.6273 C   0  0  0  0  0  0  0  0  0  0  0  0
   -1.5663   -4.1428   -3.8160 C   0  0  0  0  0  0  0  0  0  0  0  0
   -0.8729   -5.2601   -3.6943 C   0  0  0  0  0  0  0  0  0  0  0  0
   -1.3885   -6.5852   -4.2315 C   0  0  0  0  0  0  0  0  0  0  0  0
   -1.6207   -6.8203   -5.5767 C   0  0  0  0  0  0  0  0  0  0  0  0
   -2.3038   -8.0318   -5.8373 C   0  0  0  0  0  0  0  0  0  0  0  0
   -2.4072   -9.0323   -4.9816 C   0  0  0  0  0  0  0  0  0  0  0  0
   -2.8461  -10.4197   -5.4209 C   0  0  0  0  0  0  0  0  0  0  0  0
   -2.1081  -11.0168   -6.4235 N   0  0  0  0  0  0  0  0  0  0  0  0
   -2.5087  -12.2560   -6.9322 C   0  0  0  0  0  0  0  0  0  0  0  0
   -1.9785  -13.1458   -7.9640 N   0  0  0  0  0  0  0  0  0  0  0  0
   -2.7555  -14.1870   -8.0318 C   0  0  0  0  0  0  0  0  0  0  0  0
   -2.5725  -15.2812   -8.9181 O   0  0  0  0  0  0  0  0  0  0  0  0
   -1.4747  -15.2895   -9.8187 C   0  0  0  0  0  0  0  0  0  0  0  0
   -0.3217  -15.2385   -9.1324 C   0  0  0  0  0  0  0  0  0  0  0  0
    0.0453  -13.8509   -8.8944 O   0  0  0  0  0  0  0  0  0  0  0  0
   -0.6610  -13.0191   -9.9820 C   0  0  0  0  0  0  0  0  0  0  0  0
    0.3569  -12.5816  -11.0146 C   0  0  0  0  0  0  0  0  0  0  0  0
    1.5935  -12.2519  -10.3994 O   0  0  0  0  0  0  0  0  0  0  0  0
    0.5083  -13.6160  -11.8868 C   0  0  0  0  0  0  0  0  0  0  0  0
   -0.7415  -14.3513  -12.0064 O   0  0  0  0  0  0  0  0  0  0  0  0
   -1.5378  -14.0713  -10.7178 C   0  0  0  0  0  0  0  0  0  0  0  0
   -3.7969  -14.0729   -7.1058 N   0  0  0  0  0  0  0  0  0  0  0  0
   -3.6573  -12.8840   -6.4193 C   0  0  0  0  0  0  0  0  0  0  0  0
   -4.3874  -12.2682   -5.4091 C   0  0  0  0  0  0  0  0  0  0  0  0
   -3.9816  -11.0502   -4.9117 C   0  0  0  0  0  0  0  0  0  0  0  0
   -4.9130  -10.2740   -3.6085 Cl  0  0  0  0  0  0  0  0  0  0  0  0
   -2.0982   -8.7531   -3.6793 C   0  0  0  0  0  0  0  0  0  0  0  0
   -1.5492   -7.5439   -3.3269 C   0  0  0  0  0  0  0  0  0  0  0  0
    0.3338   -5.1608   -3.0590 C   0  0  0  0  0  0  0  0  0  0  0  0
    0.8579   -3.9354   -2.7253 C   0  0  0  0  0  0  0  0  0  0  0  0
    0.6643    0.0383    0.9445 H   0  0  0  0  0  0  0  0  0  0  0  0
    0.6643    0.9653   -0.5366 H   0  0  0  0  0  0  0  0  0  0  0  0
    2.0910    0.0742   -0.0636 H   0  0  0  0  0  0  0  0  0  0  0  0
    3.0838   -0.5347   -2.1241 H   0  0  0  0  0  0  0  0  0  0  0  0
    2.6541   -0.7472   -4.4558 H   0  0  0  0  0  0  0  0  0  0  0  0
    4.0807   -1.6383   -3.9828 H   0  0  0  0  0  0  0  0  0  0  0  0
    2.5739   -2.4808   -4.2524 H   0  0  0  0  0  0  0  0  0  0  0  0
   -1.5168   -1.9596   -3.9883 H   0  0  0  0  0  0  0  0  0  0  0  0
   -2.6011   -4.2248   -4.0753 H   0  0  0  0  0  0  0  0  0  0  0  0
   -1.3116   -6.1469   -6.3486 H   0  0  0  0  0  0  0  0  0  0  0  0
   -2.7688   -8.1451   -6.7943 H   0  0  0  0  0  0  0  0  0  0  0  0
   -1.5212  -16.1852  -10.4021 H   0  0  0  0  0  0  0  0  0  0  0  0
   -0.4446  -15.7387   -8.1946 H   0  0  0  0  0  0  0  0  0  0  0  0
    0.4500  -15.7188   -9.6969 H   0  0  0  0  0  0  0  0  0  0  0  0
   -1.1764  -12.1751   -9.5734 H   0  0  0  0  0  0  0  0  0  0  0  0
    0.0059  -11.7131  -11.5317 H   0  0  0  0  0  0  0  0  0  0  0  0
    1.9443  -13.0489   -9.9079 H   0  0  0  0  0  0  0  0  0  0  0  0
    1.2701  -14.2738  -11.5236 H   0  0  0  0  0  0  0  0  0  0  0  0
    0.7876  -13.2330  -12.8460 H   0  0  0  0  0  0  0  0  0  0  0  0
   -2.5498  -13.7927  -10.9252 H   0  0  0  0  0  0  0  0  0  0  0  0
   -4.5392  -14.7574   -6.9612 H   0  0  0  0  0  0  0  0  0  0  0  0
   -5.2643  -12.7406   -5.0184 H   0  0  0  0  0  0  0  0  0  0  0  0
   -2.2867   -9.4869   -2.9237 H   0  0  0  0  0  0  0  0  0  0  0  0
   -1.2483   -7.3732   -2.3144 H   0  0  0  0  0  0  0  0  0  0  0  0
    0.8777   -6.0503   -2.8184 H   0  0  0  0  0  0  0  0  0  0  0  0
    1.8355   -3.8765   -2.2941 H   0  0  0  0  0  0  0  0  0  0  0  0
  1  2  1  0  0  0  0
  1 39  1  0  0  0  0
  1 40  1  0  0  0  0
  1 41  1  0  0  0  0
  2  3  2  0  0  0  0
  3  4  2  0  0  0  0
  3  5  1  0  0  0  0
  3  7  1  0  0  0  0
  5  6  1  0  0  0  0
  5 42  1  0  0  0  0
  6 43  1  0  0  0  0
  6 44  1  0  0  0  0
  6 45  1  0  0  0  0
  7  8  1  0  0  0  0
  7 38  2  0  0  0  0
  8  9  2  0  0  0  0
  8 46  1  0  0  0  0
  9 10  1  0  0  0  0
  9 47  1  0  0  0  0
 10 11  1  0  0  0  0
 10 37  2  0  0  0  0
 11 12  1  0  0  0  0
 11 36  2  0  0  0  0
 12 13  2  0  0  0  0
 12 48  1  0  0  0  0
 13 14  1  0  0  0  0
 13 49  1  0  0  0  0
 14 15  1  0  0  0  0
 14 35  2  0  0  0  0
 15 16  1  0  0  0  0
 15 33  2  0  0  0  0
 16 17  2  0  0  0  0
 17 18  1  0  0  0  0
 17 31  1  0  0  0  0
 18 19  2  0  0  0  0
 19 20  1  0  0  0  0
 19 30  1  0  0  0  0
 20 21  1  0  0  0  0
 21 22  1  0  0  0  0
 21 29  1  0  0  0  0
 21 50  1  0  0  0  0
 22 23  1  0  0  0  0
 22 51  1  0  0  0  0
 22 52  1  0  0  0  0
 23 24  1  0  0  0  0
 24 25  1  0  0  0  0
 24 29  1  0  0  0  0
 24 53  1  0  0  0  0
 25 26  1  0  0  0  0
 25 27  1  0  0  0  0
 25 54  1  0  0  0  0
 26 55  1  0  0  0  0
 27 28  1  0  0  0  0
 27 56  1  0  0  0  0
 27 57  1  0  0  0  0
 28 29  1  0  0  0  0
 29 58  1  0  0  0  0
 30 31  1  0  0  0  0
 30 59  1  0  0  0  0
 31 32  2  0  0  0  0
 32 33  1  0  0  0  0
 32 60  1  0  0  0  0
 33 34  1  0  0  0  0
 35 36  1  0  0  0  0
 35 61  1  0  0  0  0
 36 62  1  0  0  0  0
 37 38  1  0  0  0  0
 37 63  1  0  0  0  0
 38 64  1  0  0  0  0
M  END
