REMARK  Name = 
REMARK  5 active torsions:
REMARK  status: ('A' for Active; 'I' for Inactive)
REMARK    1  A    between atoms: C_1  and  O_2
REMARK    2  A    between atoms: O_2  and  C_3
REMARK    3  A    between atoms: C_3  and  C_5
REMARK    4  A    between atoms: C_12  and  C_13
REMARK    5  A    between atoms: C_17  and  O_18
REMARK                            x       y       z     vdW  Elec       q    Type
REMARK                         _______ _______ _______ _____ _____    ______ ____
ROOT
ATOM      1  C   UNL     1       0.275  -2.492  -2.924  0.00  0.00    +0.000 A 
ATOM      2  C   UNL     1       1.131  -3.312  -3.646  0.00  0.00    +0.000 A 
ATOM      3  C   UNL     1       0.661  -4.514  -4.165  0.00  0.00    +0.000 A 
ATOM      4  C   UNL     1      -0.663  -4.819  -3.956  0.00  0.00    +0.000 A 
ATOM      5  C   UNL     1      -1.564  -3.990  -3.287  0.00  0.00    +0.000 A 
ATOM      6  C   UNL     1      -1.065  -2.812  -2.747  0.00  0.00    +0.000 A 
ATOM      7  C   UNL     1      -2.864  -4.663  -3.288  0.00  0.00    +0.000 C 
ATOM      8  C   UNL     1      -4.092  -4.314  -2.866  0.00  0.00    +0.000 C 
ATOM      9  C   UNL     1      -2.627  -5.966  -3.979  0.00  0.00    +0.000 C 
ATOM     10  O   UNL     1      -3.437  -6.869  -4.200  0.00  0.00    +0.000 OA
ATOM     11  N   UNL     1      -1.324  -5.988  -4.352  0.00  0.00    +0.000 N 
ATOM     12  H   UNL     1      -0.882  -6.757  -4.856  0.00  0.00    +0.000 HD
ENDROOT
BRANCH   8  13
ATOM     13  C   UNL     1      -4.318  -2.952  -2.230  0.00  0.00    +0.000 A 
ATOM     14  C   UNL     1      -4.056  -1.765  -2.924  0.00  0.00    +0.000 A 
ATOM     15  C   UNL     1      -4.441  -0.524  -2.407  0.00  0.00    +0.000 A 
ATOM     16 BR   UNL     1      -4.114   1.062  -3.400  0.00  0.00    +0.000 Br
ATOM     17  C   UNL     1      -5.090  -0.415  -1.190  0.00  0.00    +0.000 A 
ATOM     18  C   UNL     1      -5.290  -1.591  -0.479  0.00  0.00    +0.000 A 
ATOM     19 BR   UNL     1      -6.138  -1.478   1.222  0.00  0.00    +0.000 Br
ATOM     20  C   UNL     1      -4.921  -2.834  -0.979  0.00  0.00    +0.000 A 
BRANCH  17  21
ATOM     21  O   UNL     1      -5.511   0.813  -0.778  0.00  0.00    +0.000 OA
ATOM     22  H   UNL     1      -5.331   1.618  -1.343  0.00  0.00    +0.000 HD
ENDBRANCH  17  21
ENDBRANCH   8  13
BRANCH   1  23
ATOM     23  C   UNL     1       0.782  -1.290  -2.144  0.00  0.00    +0.000 C 
ATOM     24  O   UNL     1       1.513  -0.422  -2.717  0.00  0.00    +0.000 OA
BRANCH  23  26
ATOM     25  C   UNL     1       0.912  -0.013  -0.046  0.00  0.00    +0.000 C 
ATOM     26  O   UNL     1       0.439  -1.136  -0.775  0.00  0.00    +0.000 OA
ENDBRANCH  23  26
ENDBRANCH   1  23
TORSDOF 4
