REMARK  Name = 
REMARK  8 active torsions:
REMARK  status: ('A' for Active; 'I' for Inactive)
REMARK    1  A    between atoms: C_1  and  S_2
REMARK    2  A    between atoms: S_2  and  N_37
REMARK    3  A    between atoms: N_4  and  C_5
REMARK    4  A    between atoms: C_8  and  C_9
REMARK    5  A    between atoms: C_12  and  C_13
REMARK    6  A    between atoms: C_17  and  O_18
REMARK    7  A    between atoms: O_18  and  C_19
REMARK    8  A    between atoms: C_23  and  O_24
REMARK                            x       y       z     vdW  Elec       q    Type
REMARK                         _______ _______ _______ _____ _____    ______ ____
ROOT
ATOM      1  C   UNL     1      -6.135   7.613  -2.558  0.00  0.00    +0.000 A 
ATOM      2  N   UNL     1      -5.474   8.810  -2.751  0.00  0.00    +0.000 NA
ATOM      3  C   UNL     1      -6.181   9.922  -3.219  0.00  0.00    +0.000 A 
ATOM      4  N   UNL     1      -5.809  11.302  -3.526  0.00  0.00    +0.000 NA
ATOM      5  C   UNL     1      -6.876  11.922  -3.936  0.00  0.00    +0.000 A 
ATOM      6  N   UNL     1      -7.971  11.052  -3.932  0.00  0.00    +0.000 N 
ATOM      7  C   UNL     1      -7.556   9.812  -3.491  0.00  0.00    +0.000 A 
ATOM      8  C   UNL     1      -8.204   8.599  -3.291  0.00  0.00    +0.000 A 
ATOM      9  C   UNL     1      -7.498   7.509  -2.834  0.00  0.00    +0.000 A 
ATOM     10 CL   UNL     1      -8.331   5.954  -2.595  0.00  0.00    +0.000 Cl
ATOM     11  H   UNL     1      -8.922  11.295  -4.210  0.00  0.00    +0.000 HD
ENDROOT
BRANCH   1  15
ATOM     12  C   UNL     1      -4.091   4.224  -0.951  0.00  0.00    +0.000 A 
ATOM     13  C   UNL     1      -4.011   5.431  -0.275  0.00  0.00    +0.000 A 
ATOM     14  C   UNL     1      -4.894   6.422  -0.766  0.00  0.00    +0.000 A 
ATOM     15  C   UNL     1      -5.480   6.384  -1.948  0.00  0.00    +0.000 A 
ATOM     16  C   UNL     1      -5.466   5.180  -2.596  0.00  0.00    +0.000 A 
ATOM     17  C   UNL     1      -4.732   4.125  -2.109  0.00  0.00    +0.000 A 
BRANCH  12  21
ATOM     18  C   UNL     1      -1.840   1.131   0.948  0.00  0.00    +0.000 A 
ATOM     19  C   UNL     1      -2.844   1.759   1.666  0.00  0.00    +0.000 A 
ATOM     20  C   UNL     1      -3.665   2.604   0.883  0.00  0.00    +0.000 A 
ATOM     21  C   UNL     1      -3.342   3.067  -0.310  0.00  0.00    +0.000 A 
ATOM     22  C   UNL     1      -2.297   2.449  -0.940  0.00  0.00    +0.000 A 
ATOM     23  C   UNL     1      -1.529   1.517  -0.284  0.00  0.00    +0.000 A 
BRANCH  18  27
ATOM     24  C   UNL     1       1.074  -0.065  -0.016  0.00  0.00    +0.000 C 
ATOM     25  S   UNL     1       0.471   0.092   1.683  0.00  0.00    +0.000 S 
ATOM     26  O   UNL     1       0.981   1.402   2.286  0.00  0.00    +0.000 OA
ATOM     27  N   UNL     1      -1.105   0.092   1.683  0.00  0.00    +0.000 NA
BRANCH  25  28
ATOM     28  N   UNL     1       1.057  -1.263   2.641  0.00  0.00    +0.000 NA
ATOM     29  C   UNL     1       0.053  -1.865   3.639  0.00  0.00    +0.000 C 
ATOM     30  C   UNL     1       0.631  -3.241   3.270  0.00  0.00    +0.000 C 
ATOM     31  C   UNL     1       1.038  -2.624   1.922  0.00  0.00    +0.000 C 
ENDBRANCH  25  28
ENDBRANCH  18  27
ENDBRANCH  12  21
ENDBRANCH   1  15
BRANCH   5  32
ATOM     32  O   UNL     1      -6.923  13.285  -4.331  0.00  0.00    +0.000 OA
BRANCH  32  33
ATOM     33  C   UNL     1      -5.744  14.076  -4.295  0.00  0.00    +0.000 C 
ATOM     34  C   UNL     1      -4.733  13.642  -5.064  0.00  0.00    +0.000 C 
ATOM     35  O   UNL     1      -3.800  12.870  -4.258  0.00  0.00    +0.000 OA
ATOM     36  C   UNL     1      -3.995  13.332  -2.801  0.00  0.00    +0.000 C 
ATOM     37  C   UNL     1      -2.829  14.211  -2.397  0.00  0.00    +0.000 C 
ATOM     38  C   UNL     1      -3.103  15.467  -2.846  0.00  0.00    +0.000 C 
ATOM     39  O   UNL     1      -4.540  15.695  -2.834  0.00  0.00    +0.000 OA
ATOM     40  C   UNL     1      -5.203  14.306  -2.898  0.00  0.00    +0.000 C 
BRANCH  37  41
ATOM     41  O   UNL     1      -1.614  13.728  -2.953  0.00  0.00    +0.000 OA
ATOM     42  H   UNL     1      -1.686  13.713  -3.950  0.00  0.00    +0.000 HD
ENDBRANCH  37  41
ENDBRANCH  32  33
ENDBRANCH   5  32
TORSDOF 7
