REMARK  Name = 
REMARK  9 active torsions:
REMARK  status: ('A' for Active; 'I' for Inactive)
REMARK    1  A    between atoms: C_1  and  N_2
REMARK    2  A    between atoms: N_2  and  C_3
REMARK    3  A    between atoms: N_2  and  S_4
REMARK    4  A    between atoms: S_4  and  C_7
REMARK    5  A    between atoms: C_10  and  C_11
REMARK    6  A    between atoms: C_14  and  C_15
REMARK    7  A    between atoms: C_19  and  O_20
REMARK    8  A    between atoms: O_20  and  C_21
REMARK    9  A    between atoms: C_25  and  O_26
REMARK                            x       y       z     vdW  Elec       q    Type
REMARK                         _______ _______ _______ _____ _____    ______ ____
ROOT
ATOM      1  C   UNL     1      -1.119 -11.632   4.297  0.00  0.00    +0.000 A 
ATOM      2  N   UNL     1      -2.015 -12.483   3.682  0.00  0.00    +0.000 NA
ATOM      3  C   UNL     1      -2.239 -13.755   4.218  0.00  0.00    +0.000 A 
ATOM      4  N   UNL     1      -3.093 -14.879   3.836  0.00  0.00    +0.000 NA
ATOM      5  C   UNL     1      -2.907 -15.834   4.699  0.00  0.00    +0.000 A 
ATOM      6  N   UNL     1      -1.971 -15.440   5.660  0.00  0.00    +0.000 N 
ATOM      7  C   UNL     1      -1.550 -14.157   5.376  0.00  0.00    +0.000 A 
ATOM      8  C   UNL     1      -0.651 -13.286   5.981  0.00  0.00    +0.000 A 
ATOM      9  C   UNL     1      -0.434 -12.038   5.442  0.00  0.00    +0.000 A 
ATOM     10 CL   UNL     1       0.729 -10.933   6.213  0.00  0.00    +0.000 Cl
ATOM     11  H   UNL     1      -1.652 -16.009   6.444  0.00  0.00    +0.000 HD
ENDROOT
BRANCH   1  15
ATOM     12  C   UNL     1      -0.320  -8.058   2.098  0.00  0.00    +0.000 A 
ATOM     13  C   UNL     1      -1.612  -8.293   2.539  0.00  0.00    +0.000 A 
ATOM     14  C   UNL     1      -1.723  -9.381   3.436  0.00  0.00    +0.000 A 
ATOM     15  C   UNL     1      -0.810 -10.324   3.587  0.00  0.00    +0.000 A 
ATOM     16  C   UNL     1       0.427 -10.060   3.069  0.00  0.00    +0.000 A 
ATOM     17  C   UNL     1       0.646  -8.948   2.291  0.00  0.00    +0.000 A 
BRANCH  12  21
ATOM     18  C   UNL     1       0.515  -4.260   0.333  0.00  0.00    +0.000 A 
ATOM     19  C   UNL     1      -0.134  -4.296   1.556  0.00  0.00    +0.000 A 
ATOM     20  C   UNL     1      -0.165  -5.580   2.150  0.00  0.00    +0.000 A 
ATOM     21  C   UNL     1       0.054  -6.710   1.504  0.00  0.00    +0.000 A 
ATOM     22  C   UNL     1       0.636  -6.603   0.271  0.00  0.00    +0.000 A 
ATOM     23  C   UNL     1       0.819  -5.376  -0.320  0.00  0.00    +0.000 A 
BRANCH  18  24
ATOM     24  S   UNL     1       1.119  -2.705  -0.370  0.00  0.00    +0.000 S 
ATOM     25  N   UNL     1       0.594  -2.558  -1.848  0.00  0.00    +0.000 NA
ATOM     26  O   UNL     1       2.649  -2.705  -0.370  0.00  0.00    +0.000 OA
ATOM     27  H   UNL     1      -0.409  -2.539  -2.034  0.00  0.00    +0.000 HD
BRANCH  24  29
ATOM     28  C   UNL     1       1.022  -0.094   0.026  0.00  0.00    +0.000 C 
ATOM     29  N   UNL     1       0.532  -1.357   0.597  0.00  0.00    +0.000 NA
ATOM     30  C   UNL     1      -0.938  -1.357   0.597  0.00  0.00    +0.000 C 
ENDBRANCH  24  29
ENDBRANCH  18  24
ENDBRANCH  12  21
ENDBRANCH   1  15
BRANCH   5  31
ATOM     31  O   UNL     1      -3.559 -17.095   4.669  0.00  0.00    +0.000 OA
BRANCH  31  32
ATOM     32  C   UNL     1      -4.494 -17.386   3.640  0.00  0.00    +0.000 C 
ATOM     33  C   UNL     1      -3.895 -17.309   2.442  0.00  0.00    +0.000 C 
ATOM     34  O   UNL     1      -3.963 -15.943   1.947  0.00  0.00    +0.000 OA
ATOM     35  C   UNL     1      -5.158 -15.280   2.658  0.00  0.00    +0.000 C 
ATOM     36  C   UNL     1      -6.310 -15.152   1.683  0.00  0.00    +0.000 C 
ATOM     37  C   UNL     1      -6.961 -16.348   1.679  0.00  0.00    +0.000 C 
ATOM     38  O   UNL     1      -6.862 -16.971   2.990  0.00  0.00    +0.000 OA
ATOM     39  C   UNL     1      -5.617 -16.369   3.667  0.00  0.00    +0.000 C 
BRANCH  36  40
ATOM     40  O   UNL     1      -5.840 -14.826   0.383  0.00  0.00    +0.000 OA
ATOM     41  H   UNL     1      -5.217 -15.540   0.065  0.00  0.00    +0.000 HD
ENDBRANCH  36  40
ENDBRANCH  31  32
ENDBRANCH   5  31
TORSDOF 7
