
 OpenBabel03132514253D

 36 38  0  0  0  0  0  0  0  0999 V2000
    0.0060   -2.0480   -0.0050 O   0  0  0  0  0  0  0  0  0  0  0  0
    0.0050   -0.8220    0.0500 C   0  0  0  0  0  0  0  0  0  0  0  0
   -1.2710   -0.0630    0.0730 C   0  0  0  0  0  0  0  0  0  0  0  0
   -2.4010   -0.7460   -0.1260 C   0  0  0  0  0  0  0  0  0  0  0  0
   -2.3502   -2.2463   -0.3649 C   0  0  0  0  0  0  0  0  0  0  0  0
   -1.8051   -3.0542    0.6135 C   0  0  0  0  0  0  0  0  0  0  0  0
   -1.6964   -4.4287    0.3877 C   0  0  0  0  0  0  0  0  0  0  0  0
   -2.1673   -4.9220   -0.8225 C   0  0  0  0  0  0  0  0  0  0  0  0
   -2.7187   -4.0493   -1.7324 C   0  0  0  0  0  0  0  0  0  0  0  0
   -2.8057   -2.7308   -1.5308 N   0  0  0  0  0  0  0  0  0  0  0  0
   -1.2000    1.4270    0.2640 C   0  0  0  0  0  0  0  0  0  0  0  0
   -0.0050    1.9560   -0.4120 N   0  0  0  0  0  0  0  0  0  0  0  0
    1.1830    1.4280    0.2830 C   0  0  0  0  0  0  0  0  0  0  0  0
    1.2750   -0.0500    0.0800 C   0  0  0  0  0  0  0  0  0  0  0  0
    2.4070   -0.7270   -0.1380 C   0  0  0  0  0  0  0  0  0  0  0  0
    2.3589   -2.2231   -0.4021 C   0  0  0  0  0  0  0  0  0  0  0  0
    1.6479   -2.6850   -1.4921 C   0  0  0  0  0  0  0  0  0  0  0  0
    1.5473   -4.0607   -1.7140 C   0  0  0  0  0  0  0  0  0  0  0  0
    2.1942   -4.9062   -0.8217 C   0  0  0  0  0  0  0  0  0  0  0  0
    2.9019   -4.3607    0.2247 C   0  0  0  0  0  0  0  0  0  0  0  0
    2.9838   -3.0464    0.4541 N   0  0  0  0  0  0  0  0  0  0  0  0
   -3.3423   -0.2372   -0.1173 H   0  0  0  0  0  0  0  0  0  0  0  0
   -1.4687   -2.6310    1.5368 H   0  0  0  0  0  0  0  0  0  0  0  0
   -1.2659   -5.0782    1.1209 H   0  0  0  0  0  0  0  0  0  0  0  0
   -2.1021   -5.9667   -1.0442 H   0  0  0  0  0  0  0  0  0  0  0  0
   -3.0980   -4.4474   -2.6504 H   0  0  0  0  0  0  0  0  0  0  0  0
   -2.0743    1.8804   -0.1543 H   0  0  0  0  0  0  0  0  0  0  0  0
   -1.1455    1.6496    1.3092 H   0  0  0  0  0  0  0  0  0  0  0  0
   -0.0062    2.9751   -0.3699 H   0  0  0  0  0  0  0  0  0  0  0  0
    2.0603    1.8939   -0.1147 H   0  0  0  0  0  0  0  0  0  0  0  0
    1.1049    1.6384    1.3292 H   0  0  0  0  0  0  0  0  0  0  0  0
    3.3468   -0.2157   -0.1266 H   0  0  0  0  0  0  0  0  0  0  0  0
    1.1778   -1.9949   -2.1613 H   0  0  0  0  0  0  0  0  0  0  0  0
    0.9917   -4.4492   -2.5419 H   0  0  0  0  0  0  0  0  0  0  0  0
    2.1429   -5.9677   -0.9464 H   0  0  0  0  0  0  0  0  0  0  0  0
    3.4140   -5.0239    0.8902 H   0  0  0  0  0  0  0  0  0  0  0  0
  1  2  2  0  0  0  0
  2  3  1  0  0  0  0
  2 14  1  0  0  0  0
  3  4  2  0  0  0  0
  3 11  1  0  0  0  0
  4  5  1  0  0  0  0
  4 22  1  0  0  0  0
  5  6  1  0  0  0  0
  5 10  2  0  0  0  0
  6  7  2  0  0  0  0
  6 23  1  0  0  0  0
  7  8  1  0  0  0  0
  7 24  1  0  0  0  0
  8  9  2  0  0  0  0
  8 25  1  0  0  0  0
  9 10  1  0  0  0  0
  9 26  1  0  0  0  0
 11 12  1  0  0  0  0
 11 27  1  0  0  0  0
 11 28  1  0  0  0  0
 12 13  1  0  0  0  0
 12 29  1  0  0  0  0
 13 14  1  0  0  0  0
 13 30  1  0  0  0  0
 13 31  1  0  0  0  0
 14 15  2  0  0  0  0
 15 16  1  0  0  0  0
 15 32  1  0  0  0  0
 16 17  1  0  0  0  0
 16 21  2  0  0  0  0
 17 18  2  0  0  0  0
 17 33  1  0  0  0  0
 18 19  1  0  0  0  0
 18 34  1  0  0  0  0
 19 20  2  0  0  0  0
 19 35  1  0  0  0  0
 20 21  1  0  0  0  0
 20 36  1  0  0  0  0
M  END
