
 OpenBabel03132512083D

 70 75  0  0  0  0  0  0  0  0999 V2000
    1.0269   -0.0697    0.0665 C   0  0  0  0  0  0  0  0  0  0  0  0
    0.5202    0.9306   -0.9597 C   0  0  0  0  0  0  0  0  0  0  0  0
    1.0269    0.5421   -2.3391 C   0  0  0  0  0  0  0  0  0  0  0  0
   -0.9498    0.9306   -0.9597 N   0  0  0  0  0  0  0  0  0  0  0  0
   -1.5364    2.0889   -2.1479 S   0  0  0  0  0  0  0  0  0  0  0  0
   -0.9331    1.6262   -3.7905 C   0  0  0  0  0  0  0  0  0  0  0  0
   -3.0669    2.0889   -2.1479 O   0  0  0  0  0  0  0  0  0  0  0  0
   -1.0114    3.5282   -1.7819 N   0  0  0  0  0  0  0  0  0  0  0  0
   -1.3665    4.6771   -2.6273 C   0  0  0  0  0  0  0  0  0  0  0  0
   -0.2900    5.4537   -3.0230 C   0  0  0  0  0  0  0  0  0  0  0  0
   -0.6576    6.6443   -3.6934 C   0  0  0  0  0  0  0  0  0  0  0  0
   -1.8431    6.8652   -4.2316 C   0  0  0  0  0  0  0  0  0  0  0  0
   -2.0759    7.9967   -5.2195 C   0  0  0  0  0  0  0  0  0  0  0  0
   -1.3962    7.8849   -6.4212 C   0  0  0  0  0  0  0  0  0  0  0  0
   -1.4843    9.0363   -7.2389 C   0  0  0  0  0  0  0  0  0  0  0  0
   -2.3882    9.9885   -7.0967 C   0  0  0  0  0  0  0  0  0  0  0  0
   -2.6517   11.0122   -8.1889 C   0  0  0  0  0  0  0  0  0  0  0  0
   -2.9263   10.6168   -9.4830 N   0  0  0  0  0  0  0  0  0  0  0  0
   -3.0001   11.5757  -10.4978 C   0  0  0  0  0  0  0  0  0  0  0  0
   -3.2624   11.5108  -11.9346 N   0  0  0  0  0  0  0  0  0  0  0  0
   -3.2121   12.7225  -12.4053 C   0  0  0  0  0  0  0  0  0  0  0  0
   -3.4149   13.0748  -13.7659 O   0  0  0  0  0  0  0  0  0  0  0  0
   -3.6968   12.0671  -14.7258 C   0  0  0  0  0  0  0  0  0  0  0  0
   -4.8267   11.4252  -14.3875 C   0  0  0  0  0  0  0  0  0  0  0  0
   -4.5127   10.3172  -13.4986 O   0  0  0  0  0  0  0  0  0  0  0  0
   -3.0391    9.9512  -13.7596 C   0  0  0  0  0  0  0  0  0  0  0  0
   -2.9786    8.6652  -14.5572 C   0  0  0  0  0  0  0  0  0  0  0  0
   -3.9896    7.7605  -14.1380 O   0  0  0  0  0  0  0  0  0  0  0  0
   -3.1398    9.0015  -15.8667 C   0  0  0  0  0  0  0  0  0  0  0  0
   -2.5828   10.3231  -16.1118 O   0  0  0  0  0  0  0  0  0  0  0  0
   -2.5728   11.0513  -14.7543 C   0  0  0  0  0  0  0  0  0  0  0  0
   -2.9295   13.6278  -11.3781 N   0  0  0  0  0  0  0  0  0  0  0  0
   -2.7955   12.9331  -10.1933 C   0  0  0  0  0  0  0  0  0  0  0  0
   -2.5210   13.3127   -8.8844 C   0  0  0  0  0  0  0  0  0  0  0  0
   -2.4554   12.3610   -7.8916 C   0  0  0  0  0  0  0  0  0  0  0  0
   -2.1175   12.8556   -6.2154 Cl  0  0  0  0  0  0  0  0  0  0  0  0
   -3.0742   10.0041   -5.9141 C   0  0  0  0  0  0  0  0  0  0  0  0
   -2.9418    8.9807   -5.0068 C   0  0  0  0  0  0  0  0  0  0  0  0
   -2.8499    6.0213   -3.8525 C   0  0  0  0  0  0  0  0  0  0  0  0
   -2.5897    4.9091   -3.0889 C   0  0  0  0  0  0  0  0  0  0  0  0
    0.6702   -1.0474   -0.1822 H   0  0  0  0  0  0  0  0  0  0  0  0
    0.6702    0.2038    1.0375 H   0  0  0  0  0  0  0  0  0  0  0  0
    2.0969   -0.0697    0.0665 H   0  0  0  0  0  0  0  0  0  0  0  0
    0.8769    1.9083   -0.7111 H   0  0  0  0  0  0  0  0  0  0  0  0
    0.6702   -0.4356   -2.5878 H   0  0  0  0  0  0  0  0  0  0  0  0
    0.6702    1.2462   -3.0615 H   0  0  0  0  0  0  0  0  0  0  0  0
    2.0969    0.5421   -2.3391 H   0  0  0  0  0  0  0  0  0  0  0  0
   -1.2898   -0.0014   -1.1967 H   0  0  0  0  0  0  0  0  0  0  0  0
   -1.2898    0.6485   -4.0391 H   0  0  0  0  0  0  0  0  0  0  0  0
   -1.2898    2.3304   -4.5129 H   0  0  0  0  0  0  0  0  0  0  0  0
    0.1369    1.6262   -3.7905 H   0  0  0  0  0  0  0  0  0  0  0  0
    0.7274    5.1783   -2.8384 H   0  0  0  0  0  0  0  0  0  0  0  0
    0.0760    7.4195   -3.7696 H   0  0  0  0  0  0  0  0  0  0  0  0
   -0.8537    7.0075   -6.7053 H   0  0  0  0  0  0  0  0  0  0  0  0
   -0.7688    9.1428   -8.0273 H   0  0  0  0  0  0  0  0  0  0  0  0
   -3.8012   12.5300  -15.6849 H   0  0  0  0  0  0  0  0  0  0  0  0
   -5.4850   12.1050  -13.8882 H   0  0  0  0  0  0  0  0  0  0  0  0
   -5.3007   11.0499  -15.2704 H   0  0  0  0  0  0  0  0  0  0  0  0
   -2.4782    9.8639  -12.8526 H   0  0  0  0  0  0  0  0  0  0  0  0
   -2.0316    8.1881  -14.4142 H   0  0  0  0  0  0  0  0  0  0  0  0
   -4.8874    8.1832  -14.2617 H   0  0  0  0  0  0  0  0  0  0  0  0
   -4.1836    9.0106  -16.1017 H   0  0  0  0  0  0  0  0  0  0  0  0
   -2.6363    8.2849  -16.4814 H   0  0  0  0  0  0  0  0  0  0  0  0
   -1.6276   11.5110  -14.5537 H   0  0  0  0  0  0  0  0  0  0  0  0
   -2.8373   14.6378  -11.4867 H   0  0  0  0  0  0  0  0  0  0  0  0
   -2.3608   14.3440   -8.6487 H   0  0  0  0  0  0  0  0  0  0  0  0
   -3.7236   10.8250   -5.6919 H   0  0  0  0  0  0  0  0  0  0  0  0
   -3.5418    8.9767   -4.1209 H   0  0  0  0  0  0  0  0  0  0  0  0
   -3.8548    6.2301   -4.1549 H   0  0  0  0  0  0  0  0  0  0  0  0
   -3.3800    4.2236   -2.8642 H   0  0  0  0  0  0  0  0  0  0  0  0
  1  2  1  0  0  0  0
  1 41  1  0  0  0  0
  1 42  1  0  0  0  0
  1 43  1  0  0  0  0
  2  3  1  0  0  0  0
  2  4  1  0  0  0  0
  2 44  1  0  0  0  0
  3 45  1  0  0  0  0
  3 46  1  0  0  0  0
  3 47  1  0  0  0  0
  4  5  1  0  0  0  0
  4 48  1  0  0  0  0
  5  6  1  0  0  0  0
  5  7  2  0  0  0  0
  5  8  2  0  0  0  0
  6 49  1  0  0  0  0
  6 50  1  0  0  0  0
  6 51  1  0  0  0  0
  8  9  1  0  0  0  0
  9 10  1  0  0  0  0
  9 40  2  0  0  0  0
 10 11  2  0  0  0  0
 10 52  1  0  0  0  0
 11 12  1  0  0  0  0
 11 53  1  0  0  0  0
 12 13  1  0  0  0  0
 12 39  2  0  0  0  0
 13 14  1  0  0  0  0
 13 38  2  0  0  0  0
 14 15  2  0  0  0  0
 14 54  1  0  0  0  0
 15 16  1  0  0  0  0
 15 55  1  0  0  0  0
 16 17  1  0  0  0  0
 16 37  2  0  0  0  0
 17 18  1  0  0  0  0
 17 35  2  0  0  0  0
 18 19  2  0  0  0  0
 19 20  1  0  0  0  0
 19 33  1  0  0  0  0
 20 21  2  0  0  0  0
 21 22  1  0  0  0  0
 21 32  1  0  0  0  0
 22 23  1  0  0  0  0
 23 24  1  0  0  0  0
 23 31  1  0  0  0  0
 23 56  1  0  0  0  0
 24 25  1  0  0  0  0
 24 57  1  0  0  0  0
 24 58  1  0  0  0  0
 25 26  1  0  0  0  0
 26 27  1  0  0  0  0
 26 31  1  0  0  0  0
 26 59  1  0  0  0  0
 27 28  1  0  0  0  0
 27 29  1  0  0  0  0
 27 60  1  0  0  0  0
 28 61  1  0  0  0  0
 29 30  1  0  0  0  0
 29 62  1  0  0  0  0
 29 63  1  0  0  0  0
 30 31  1  0  0  0  0
 31 64  1  0  0  0  0
 32 33  1  0  0  0  0
 32 65  1  0  0  0  0
 33 34  2  0  0  0  0
 34 35  1  0  0  0  0
 34 66  1  0  0  0  0
 35 36  1  0  0  0  0
 37 38  1  0  0  0  0
 37 67  1  0  0  0  0
 38 68  1  0  0  0  0
 39 40  1  0  0  0  0
 39 69  1  0  0  0  0
 40 70  1  0  0  0  0
M  END
