
 OpenBabel03132514253D

 62 66  0  0  0  0  0  0  0  0999 V2000
    0.9464    0.0652   -0.0536 C   0  0  0  0  0  0  0  0  0  0  0  0
    0.4397    0.3017    1.3598 C   0  0  0  0  0  0  0  0  0  0  0  0
    0.0587   -0.7590    2.1571 N   0  0  0  0  0  0  0  0  0  0  0  0
   -0.3473   -0.5587    3.4010 C   0  0  0  0  0  0  0  0  0  0  0  0
   -0.7656   -1.7512    4.2457 C   0  0  0  0  0  0  0  0  0  0  0  0
   -0.3979    0.6538    3.9267 C   0  0  0  0  0  0  0  0  0  0  0  0
   -0.8647    0.8312    5.3624 C   0  0  0  0  0  0  0  0  0  0  0  0
   -2.1904    0.3395    5.4932 O   0  0  0  0  0  0  0  0  0  0  0  0
   -3.2375    0.9064    4.7195 C   0  0  0  0  0  0  0  0  0  0  0  0
   -4.4765    1.1795    5.2637 C   0  0  0  0  0  0  0  0  0  0  0  0
   -5.4537    1.6629    4.5128 C   0  0  0  0  0  0  0  0  0  0  0  0
   -5.2817    1.9069    3.2244 C   0  0  0  0  0  0  0  0  0  0  0  0
   -4.0680    1.6572    2.6136 C   0  0  0  0  0  0  0  0  0  0  0  0
   -3.0238    1.1446    3.3695 C   0  0  0  0  0  0  0  0  0  0  0  0
   -3.8891    1.9255    1.2099 C   0  0  0  0  0  0  0  0  0  0  0  0
   -2.6200    1.6617    0.5824 C   0  0  0  0  0  0  0  0  0  0  0  0
   -6.3366    2.4216    2.4746 N   0  0  0  0  0  0  0  0  0  0  0  0
   -6.1548    2.6960    1.0419 C   0  0  0  0  0  0  0  0  0  0  0  0
   -5.0351    2.4635    0.4875 O   0  0  0  0  0  0  0  0  0  0  0  0
   -7.3060    3.2577    0.2237 C   0  0  0  0  0  0  0  0  0  0  0  0
   -7.5922    2.7822   -1.0403 C   0  0  0  0  0  0  0  0  0  0  0  0
   -8.5720    3.3110   -1.7564 C   0  0  0  0  0  0  0  0  0  0  0  0
   -9.3128    4.3029   -1.2913 C   0  0  0  0  0  0  0  0  0  0  0  0
  -10.6223    4.9689   -2.2963 Cl  0  0  0  0  0  0  0  0  0  0  0  0
   -9.0823    4.8282   -0.0345 C   0  0  0  0  0  0  0  0  0  0  0  0
   -8.0594    4.3018    0.7407 C   0  0  0  0  0  0  0  0  0  0  0  0
   -2.4312    1.9449   -0.8990 C   0  0  0  0  0  0  0  0  0  0  0  0
   -3.4181    1.1146   -1.7034 C   0  0  0  0  0  0  0  0  0  0  0  0
   -4.8365    1.4774   -1.2949 C   0  0  0  0  0  0  0  0  0  0  0  0
   -5.8235    0.6472   -2.0993 C   0  0  0  0  0  0  0  0  0  0  0  0
   -6.6337   -0.1300   -1.5037 O   0  0  0  0  0  0  0  0  0  0  0  0
   -5.8402    0.7398   -3.5162 O   0  0  0  0  0  0  0  0  0  0  0  0
   -5.0398    2.4870    0.3908 C   0  0  0  0  0  0  0  0  0  0  0  0
   -0.0315    1.7611    3.1863 N   0  0  0  0  0  0  0  0  0  0  0  0
    0.3933    1.5882    1.8771 C   0  0  0  0  0  0  0  0  0  0  0  0
    0.7989    2.7820    1.0280 C   0  0  0  0  0  0  0  0  0  0  0  0
    0.5897    0.8436   -0.6953 H   0  0  0  0  0  0  0  0  0  0  0  0
    0.5897   -0.8797   -0.4070 H   0  0  0  0  0  0  0  0  0  0  0  0
    2.0164    0.0652   -0.0536 H   0  0  0  0  0  0  0  0  0  0  0  0
   -1.5861   -2.2514    3.7750 H   0  0  0  0  0  0  0  0  0  0  0  0
    0.0579   -2.4278    4.3400 H   0  0  0  0  0  0  0  0  0  0  0  0
   -1.0631   -1.4138    5.2165 H   0  0  0  0  0  0  0  0  0  0  0  0
   -0.2165    0.2879    6.0178 H   0  0  0  0  0  0  0  0  0  0  0  0
   -0.8425    1.8697    5.6189 H   0  0  0  0  0  0  0  0  0  0  0  0
   -4.6489    0.9985    6.3041 H   0  0  0  0  0  0  0  0  0  0  0  0
   -6.4058    1.8610    4.9591 H   0  0  0  0  0  0  0  0  0  0  0  0
   -2.0745    0.9377    2.9213 H   0  0  0  0  0  0  0  0  0  0  0  0
   -7.0157    1.9771   -1.4458 H   0  0  0  0  0  0  0  0  0  0  0  0
   -8.7693    2.9266   -2.7353 H   0  0  0  0  0  0  0  0  0  0  0  0
   -9.6850    5.6308    0.3361 H   0  0  0  0  0  0  0  0  0  0  0  0
   -7.8559    4.6924    1.7159 H   0  0  0  0  0  0  0  0  0  0  0  0
   -2.6020    2.9841   -1.0881 H   0  0  0  0  0  0  0  0  0  0  0  0
   -1.4327    1.6895   -1.1865 H   0  0  0  0  0  0  0  0  0  0  0  0
   -3.2852    1.3140   -2.7462 H   0  0  0  0  0  0  0  0  0  0  0  0
   -3.2473    0.0754   -1.5143 H   0  0  0  0  0  0  0  0  0  0  0  0
   -4.9694    1.2781   -0.2521 H   0  0  0  0  0  0  0  0  0  0  0  0
   -6.4895    0.1936   -4.0453 H   0  0  0  0  0  0  0  0  0  0  0  0
   -5.2790    1.8079   -0.4007 H   0  0  0  0  0  0  0  0  0  0  0  0
   -5.8955    2.6170    1.0201 H   0  0  0  0  0  0  0  0  0  0  0  0
   -0.0297    3.4528    0.9368 H   0  0  0  0  0  0  0  0  0  0  0  0
    1.6185    3.2886    1.4932 H   0  0  0  0  0  0  0  0  0  0  0  0
    1.0934    2.4448    0.0561 H   0  0  0  0  0  0  0  0  0  0  0  0
  1  2  1  0  0  0  0
  1 37  1  0  0  0  0
  1 38  1  0  0  0  0
  1 39  1  0  0  0  0
  2  3  1  0  0  0  0
  2 35  2  0  0  0  0
  3  4  2  0  0  0  0
  4  5  1  0  0  0  0
  4  6  1  0  0  0  0
  5 40  1  0  0  0  0
  5 41  1  0  0  0  0
  5 42  1  0  0  0  0
  6  7  1  0  0  0  0
  6 34  2  0  0  0  0
  7  8  1  0  0  0  0
  7 43  1  0  0  0  0
  7 44  1  0  0  0  0
  8  9  1  0  0  0  0
  9 10  1  0  0  0  0
  9 14  2  0  0  0  0
 10 11  2  0  0  0  0
 10 45  1  0  0  0  0
 11 12  1  0  0  0  0
 11 46  1  0  0  0  0
 12 13  2  0  0  0  0
 12 17  1  0  0  0  0
 13 14  1  0  0  0  0
 13 15  1  0  0  0  0
 14 47  1  0  0  0  0
 15 16  2  0  0  0  0
 15 33  1  0  0  0  0
 16 17  1  0  0  0  0
 16 27  1  0  0  0  0
 17 18  1  0  0  0  0
 18 19  2  0  0  0  0
 18 20  1  0  0  0  0
 20 21  1  0  0  0  0
 20 26  2  0  0  0  0
 21 22  2  0  0  0  0
 21 48  1  0  0  0  0
 22 23  1  0  0  0  0
 22 49  1  0  0  0  0
 23 24  1  0  0  0  0
 23 25  2  0  0  0  0
 25 26  1  0  0  0  0
 25 50  1  0  0  0  0
 26 51  1  0  0  0  0
 27 28  1  0  0  0  0
 27 52  1  0  0  0  0
 27 53  1  0  0  0  0
 28 29  1  0  0  0  0
 28 54  1  0  0  0  0
 28 55  1  0  0  0  0
 29 30  1  0  0  0  0
 29 33  1  0  0  0  0
 29 56  1  0  0  0  0
 30 31  2  0  0  0  0
 30 32  1  0  0  0  0
 32 57  1  0  0  0  0
 33 58  1  0  0  0  0
 33 59  1  0  0  0  0
 34 35  1  0  0  0  0
 35 36  1  0  0  0  0
 36 60  1  0  0  0  0
 36 61  1  0  0  0  0
 36 62  1  0  0  0  0
M  END
