REMARK  Name = 
REMARK  7 active torsions:
REMARK  status: ('A' for Active; 'I' for Inactive)
REMARK    1  A    between atoms: C_2  and  O_3
REMARK    2  A    between atoms: C_2  and  C_4
REMARK    3  A    between atoms: C_11  and  O_12
REMARK    4  A    between atoms: O_12  and  C_13
REMARK    5  A    between atoms: C_13  and  C_14
REMARK    6  A    between atoms: N_23  and  C_24
REMARK    7  A    between atoms: C_24  and  C_25
REMARK                            x       y       z     vdW  Elec       q    Type
REMARK                         _______ _______ _______ _____ _____    ______ ____
ROOT
ATOM      1  C   UNL     1       2.977   1.143   0.468  0.00  0.00    +0.000 C 
ATOM      2  C   UNL     1       3.159   1.017   1.983  0.00  0.00    +0.000 C 
ATOM      3  C   UNL     1       4.079   2.139   2.479  0.00  0.00    +0.000 C 
ATOM      4  C   UNL     1       3.573   3.448   1.927  0.00  0.00    +0.000 A 
ATOM      5  C   UNL     1       2.701   3.560   0.900  0.00  0.00    +0.000 A 
ATOM      6  C   UNL     1       2.454   4.881   0.653  0.00  0.00    +0.000 A 
ATOM      7  C   UNL     1       1.659   5.499  -0.272  0.00  0.00    +0.000 A 
ATOM      8  C   UNL     1       1.573   6.846  -0.323  0.00  0.00    +0.000 A 
ATOM      9  C   UNL     1       2.304   7.638   0.574  0.00  0.00    +0.000 A 
ATOM     10  C   UNL     1       3.105   7.035   1.504  0.00  0.00    +0.000 A 
ATOM     11  C   UNL     1       3.179   5.638   1.543  0.00  0.00    +0.000 A 
ATOM     12  N   UNL     1       3.900   4.747   2.367  0.00  0.00    +0.000 N 
ATOM     13  C   UNL     1       2.118   2.378   0.160  0.00  0.00    +0.000 C 
ENDROOT
BRANCH   1  15
ATOM     14  O   UNL     1       0.946  -0.067  -0.051  0.00  0.00    +0.000 OA
ATOM     15  C   UNL     1       2.217  -0.067  -0.051  0.00  0.00    +0.000 C 
BRANCH  15  16
ATOM     16  O   UNL     1       2.927  -1.197  -0.536  0.00  0.00    +0.000 OA
ATOM     17  H   UNL     1       3.927  -1.197  -0.536  0.00  0.00    +0.000 HD
ENDBRANCH  15  16
ENDBRANCH   1  15
BRANCH   8  18
ATOM     18  O   UNL     1       0.739   7.465  -1.291  0.00  0.00    +0.000 OA
BRANCH  18  19
ATOM     19  C   UNL     1       0.646   8.880  -1.349  0.00  0.00    +0.000 C 
BRANCH  19  20
ATOM     20  C   UNL     1       0.124   9.408  -0.022  0.00  0.00    +0.000 A 
ATOM     21  C   UNL     1      -0.435   8.549   0.965  0.00  0.00    +0.000 A 
ATOM     22  C   UNL     1      -1.062   9.109   2.090  0.00  0.00    +0.000 A 
ATOM     23  C   UNL     1      -0.897  10.369   2.367  0.00  0.00    +0.000 A 
ATOM     24  C   UNL     1      -0.085  11.167   1.551  0.00  0.00    +0.000 A 
ATOM     25  C   UNL     1       0.295  10.698   0.270  0.00  0.00    +0.000 A 
ENDBRANCH  19  20
ENDBRANCH  18  19
ENDBRANCH   8  18
BRANCH  12  26
ATOM     26  C   UNL     1       4.809   5.103   3.466  0.00  0.00    +0.000 C 
BRANCH  26  27
ATOM     27  C   UNL     1       4.297   4.500   4.763  0.00  0.00    +0.000 A 
ATOM     28  C   UNL     1       4.167   3.085   4.830  0.00  0.00    +0.000 A 
ATOM     29  C   UNL     1       3.536   2.503   5.941  0.00  0.00    +0.000 A 
ATOM     30  C   UNL     1       3.321   3.209   7.012  0.00  0.00    +0.000 A 
ATOM     31 CL   UNL     1       2.508   2.474   8.414  0.00  0.00    +0.000 Cl
ATOM     32  C   UNL     1       3.728   4.549   7.063  0.00  0.00    +0.000 A 
ATOM     33  C   UNL     1       4.080   5.219   5.866  0.00  0.00    +0.000 A 
ENDBRANCH  26  27
ENDBRANCH  12  26
TORSDOF 7
