
 OpenBabel03132512093D

 52 53  0  0  0  0  0  0  0  0999 V2000
    1.0551   -0.0688   -0.0474 C   0  0  0  0  0  0  0  0  0  0  0  0
    0.5484    0.6009   -1.3144 C   0  0  0  0  0  0  0  0  0  0  0  0
    1.0217   -0.1114   -2.4479 O   0  0  0  0  0  0  0  0  0  0  0  0
    2.4178   -0.2495   -2.6676 C   0  0  0  0  0  0  0  0  0  0  0  0
    2.9511   -0.0457   -3.9246 N   0  0  0  0  0  0  0  0  0  0  0  0
    4.2515   -0.1736   -4.1367 C   0  0  0  0  0  0  0  0  0  0  0  0
    4.7822    0.0444   -5.4901 N   0  0  0  0  0  0  0  0  0  0  0  0
    3.8718    0.3999   -6.5882 C   0  0  0  0  0  0  0  0  0  0  0  0
    4.3307    0.5884   -7.7583 O   0  0  0  0  0  0  0  0  0  0  0  0
    2.3817    0.5419   -6.3242 C   0  0  0  0  0  0  0  0  0  0  0  0
    1.8316   -0.7757   -5.8030 C   0  0  0  0  0  0  0  0  0  0  0  0
    2.6598   -1.9213   -5.9641 C   0  0  0  0  0  0  0  0  0  0  0  0
    2.1209   -3.1984   -5.7379 C   0  0  0  0  0  0  0  0  0  0  0  0
    2.8242   -4.3527   -6.1729 O   0  0  0  0  0  0  0  0  0  0  0  0
    4.0721   -4.2157   -6.8365 C   0  0  0  0  0  0  0  0  0  0  0  0
    0.9780   -3.3241   -5.1301 C   0  0  0  0  0  0  0  0  0  0  0  0
    0.2786   -4.9701   -4.8517 S   0  0  0  0  0  0  0  0  0  0  0  0
    0.0213   -5.7934   -6.4429 C   0  0  0  0  0  0  0  0  0  0  0  0
    1.2440   -5.7972   -3.9996 O   0  0  0  0  0  0  0  0  0  0  0  0
   -1.0608   -4.8387   -4.1228 O   0  0  0  0  0  0  0  0  0  0  0  0
    0.2874   -2.1868   -4.6905 C   0  0  0  0  0  0  0  0  0  0  0  0
    0.6627   -0.9098   -5.1741 C   0  0  0  0  0  0  0  0  0  0  0  0
   -0.1914    0.2099   -4.9924 O   0  0  0  0  0  0  0  0  0  0  0  0
    0.1961    1.4853   -5.4819 C   0  0  0  0  0  0  0  0  0  0  0  0
    5.0847   -0.4928   -3.1606 C   0  0  0  0  0  0  0  0  0  0  0  0
    4.6204   -0.7112   -1.8779 C   0  0  0  0  0  0  0  0  0  0  0  0
    5.5534   -1.0658   -0.7988 N   0  0  0  0  0  0  0  0  0  0  0  0
    3.2623   -0.5916   -1.6213 C   0  0  0  0  0  0  0  0  0  0  0  0
    2.7117   -0.8301   -0.2248 C   0  0  0  0  0  0  0  0  0  0  0  0
    2.2549   -1.0280    0.9337 N   0  0  0  0  0  0  0  0  0  0  0  0
    0.6984   -1.0769   -0.0096 H   0  0  0  0  0  0  0  0  0  0  0  0
    0.6984    0.4680    0.8068 H   0  0  0  0  0  0  0  0  0  0  0  0
    2.1251   -0.0688   -0.0474 H   0  0  0  0  0  0  0  0  0  0  0  0
   -0.5216    0.6009   -1.3144 H   0  0  0  0  0  0  0  0  0  0  0  0
    0.9051    1.6090   -1.3521 H   0  0  0  0  0  0  0  0  0  0  0  0
    5.7822   -0.0509   -5.6673 H   0  0  0  0  0  0  0  0  0  0  0  0
    2.2200    1.3089   -5.5958 H   0  0  0  0  0  0  0  0  0  0  0  0
    1.8816    0.8025   -7.2335 H   0  0  0  0  0  0  0  0  0  0  0  0
    3.6836   -1.8108   -6.2548 H   0  0  0  0  0  0  0  0  0  0  0  0
    3.9400   -3.6417   -7.7297 H   0  0  0  0  0  0  0  0  0  0  0  0
    4.7661   -3.7178   -6.1919 H   0  0  0  0  0  0  0  0  0  0  0  0
    4.4507   -5.1845   -7.0878 H   0  0  0  0  0  0  0  0  0  0  0  0
    0.9577   -5.8852   -6.9525 H   0  0  0  0  0  0  0  0  0  0  0  0
   -0.3922   -6.7664   -6.2784 H   0  0  0  0  0  0  0  0  0  0  0  0
   -0.6537   -5.2151   -7.0387 H   0  0  0  0  0  0  0  0  0  0  0  0
   -0.5188   -2.2828   -3.9936 H   0  0  0  0  0  0  0  0  0  0  0  0
    1.1134    1.7819   -5.0176 H   0  0  0  0  0  0  0  0  0  0  0  0
    0.3332    1.4340   -6.5419 H   0  0  0  0  0  0  0  0  0  0  0  0
   -0.5661    2.2011   -5.2551 H   0  0  0  0  0  0  0  0  0  0  0  0
    6.1308   -0.5829   -3.3667 H   0  0  0  0  0  0  0  0  0  0  0  0
    6.5507   -1.1520   -0.9947 H   0  0  0  0  0  0  0  0  0  0  0  0
    5.2036   -1.2256    0.1459 H   0  0  0  0  0  0  0  0  0  0  0  0
  1  2  1  0  0  0  0
  1 31  1  0  0  0  0
  1 32  1  0  0  0  0
  1 33  1  0  0  0  0
  2  3  1  0  0  0  0
  2 34  1  0  0  0  0
  2 35  1  0  0  0  0
  3  4  1  0  0  0  0
  4  5  1  0  0  0  0
  4 28  2  0  0  0  0
  5  6  2  0  0  0  0
  6  7  1  0  0  0  0
  6 25  1  0  0  0  0
  7  8  1  0  0  0  0
  7 36  1  0  0  0  0
  8  9  2  0  0  0  0
  8 10  1  0  0  0  0
 10 11  1  0  0  0  0
 10 37  1  0  0  0  0
 10 38  1  0  0  0  0
 11 12  1  0  0  0  0
 11 22  2  0  0  0  0
 12 13  2  0  0  0  0
 12 39  1  0  0  0  0
 13 14  1  0  0  0  0
 13 16  1  0  0  0  0
 14 15  1  0  0  0  0
 15 40  1  0  0  0  0
 15 41  1  0  0  0  0
 15 42  1  0  0  0  0
 16 17  1  0  0  0  0
 16 21  2  0  0  0  0
 17 18  1  0  0  0  0
 17 19  2  0  0  0  0
 17 20  2  0  0  0  0
 18 43  1  0  0  0  0
 18 44  1  0  0  0  0
 18 45  1  0  0  0  0
 21 22  1  0  0  0  0
 21 46  1  0  0  0  0
 22 23  1  0  0  0  0
 23 24  1  0  0  0  0
 24 47  1  0  0  0  0
 24 48  1  0  0  0  0
 24 49  1  0  0  0  0
 25 26  2  0  0  0  0
 25 50  1  0  0  0  0
 26 27  1  0  0  0  0
 26 28  1  0  0  0  0
 27 51  1  0  0  0  0
 27 52  1  0  0  0  0
 28 29  1  0  0  0  0
 29 30  3  0  0  0  0
M  END
