REMARK  Name = 
REMARK  7 active torsions:
REMARK  status: ('A' for Active; 'I' for Inactive)
REMARK    1  A    between atoms: C_1  and  N_2
REMARK    2  A    between atoms: C_5  and  C_6
REMARK    3  A    between atoms: C_15  and  C_16
REMARK    4  A    between atoms: N_18  and  C_19
REMARK    5  A    between atoms: C_19  and  C_20
REMARK    6  A    between atoms: C_20  and  C_21
REMARK    7  A    between atoms: C_21  and  N_22
REMARK                            x       y       z     vdW  Elec       q    Type
REMARK                         _______ _______ _______ _____ _____    ______ ____
ROOT
ATOM      1  C   UNL     1       0.000   2.071   0.019  0.00  0.00    +0.000 C 
ATOM      2  N   UNL     1       0.002   0.620   0.032  0.00  0.00    +0.000 N 
ATOM      3  C   UNL     1       1.132  -0.168   0.004  0.00  0.00    +0.000 C 
ATOM      4  O   UNL     1       2.255   0.276  -0.036  0.00  0.00    +0.000 OA
ATOM      5  C   UNL     1       0.675  -1.606   0.026  0.00  0.00    +0.000 C 
ATOM      6  C   UNL     1      -0.681  -1.592  -0.004  0.00  0.00    +0.000 C 
ATOM      7  C   UNL     1      -1.126  -0.159   0.004  0.00  0.00    +0.000 C 
ATOM      8  O   UNL     1      -2.256   0.272  -0.029  0.00  0.00    +0.000 OA
ENDROOT
BRANCH   5   9
ATOM      9  C   UNL     1       1.565  -2.837   0.073  0.00  0.00    +0.000 A 
ATOM     10  C   UNL     1       2.449  -3.145   1.035  0.00  0.00    +0.000 A 
ATOM     11  N   UNL     1       3.072  -4.395   0.754  0.00  0.00    +0.000 N 
ATOM     12  C   UNL     1       2.555  -4.836  -0.480  0.00  0.00    +0.000 A 
ATOM     13  C   UNL     1       2.886  -5.926  -1.272  0.00  0.00    +0.000 A 
ATOM     14  C   UNL     1       2.245  -6.031  -2.503  0.00  0.00    +0.000 A 
ATOM     15  C   UNL     1       1.306  -5.104  -2.914  0.00  0.00    +0.000 A 
ATOM     16  C   UNL     1       0.983  -4.045  -2.133  0.00  0.00    +0.000 A 
ATOM     17  C   UNL     1       1.618  -3.888  -0.905  0.00  0.00    +0.000 A 
ATOM     18  H   UNL     1       3.759  -4.878   1.334  0.00  0.00    +0.000 HD
ENDBRANCH   5   9
BRANCH   6  19
ATOM     19  C   UNL     1      -1.588  -2.811  -0.039  0.00  0.00    +0.000 A 
ATOM     20  C   UNL     1      -3.018  -2.644  -0.069  0.00  0.00    +0.000 A 
ATOM     21  N   UNL     1      -3.570  -1.365  -0.066  0.00  0.00    +0.000 N 
ATOM     22  C   UNL     1      -2.739  -0.248  -0.033  0.00  0.00    +0.000 A 
ATOM     23  C   UNL     1      -3.309   1.075  -0.029  0.00  0.00    +0.000 A 
ATOM     24  C   UNL     1      -4.739   1.242  -0.059  0.00  0.00    +0.000 A 
ATOM     25  C   UNL     1      -5.310   2.564  -0.055  0.00  0.00    +0.000 A 
ATOM     26  C   UNL     1      -6.740   2.732  -0.085  0.00  0.00    +0.000 A 
ATOM     27  C   UNL     1      -1.309  -0.415  -0.003  0.00  0.00    +0.000 A 
BRANCH  21  28
ATOM     28  C   UNL     1      -5.030  -1.194  -0.096  0.00  0.00    +0.000 C 
BRANCH  28  29
ATOM     29  C   UNL     1      -5.478  -0.439   1.145  0.00  0.00    +0.000 C 
BRANCH  29  30
ATOM     30  C   UNL     1      -4.808   0.926   1.177  0.00  0.00    +0.000 C 
BRANCH  30  31
ATOM     31  N   UNL     1      -5.188   1.686  -0.022  0.00  0.00    +0.000 NA
ATOM     32  H   UNL     1      -4.739   2.601  -0.001  0.00  0.00    +0.000 HD
ATOM     33  H   UNL     1      -4.887   1.179  -0.855  0.00  0.00    +0.000 HD
ENDBRANCH  30  31
ENDBRANCH  29  30
ENDBRANCH  28  29
ENDBRANCH  21  28
ENDBRANCH   6  19
TORSDOF 6
