REMARK  Name = 
REMARK  11 active torsions:
REMARK  status: ('A' for Active; 'I' for Inactive)
REMARK    1  A    between atoms: C_1  and  N_2
REMARK    2  A    between atoms: N_2  and  C_3
REMARK    3  A    between atoms: N_2  and  S_4
REMARK    4  A    between atoms: S_4  and  C_5
REMARK    5  A    between atoms: N_7  and  C_8
REMARK    6  A    between atoms: C_8  and  C_9
REMARK    7  A    between atoms: C_12  and  C_13
REMARK    8  A    between atoms: C_16  and  C_17
REMARK    9  A    between atoms: C_21  and  O_22
REMARK   10  A    between atoms: O_22  and  C_23
REMARK   11  A    between atoms: C_27  and  O_28
REMARK                            x       y       z     vdW  Elec       q    Type
REMARK                         _______ _______ _______ _____ _____    ______ ____
ROOT
ATOM      1  C   UNL     1      -2.255 -11.079   3.224  0.00  0.00    +0.000 A 
ATOM      2  N   UNL     1      -1.674 -11.721   2.148  0.00  0.00    +0.000 NA
ATOM      3  C   UNL     1      -2.056 -13.030   1.836  0.00  0.00    +0.000 A 
ATOM      4  N   UNL     1      -1.659 -13.980   0.798  0.00  0.00    +0.000 NA
ATOM      5  C   UNL     1      -2.341 -15.073   0.975  0.00  0.00    +0.000 A 
ATOM      6  N   UNL     1      -3.191 -14.939   2.077  0.00  0.00    +0.000 N 
ATOM      7  C   UNL     1      -3.026 -13.681   2.619  0.00  0.00    +0.000 A 
ATOM      8  C   UNL     1      -3.599 -13.018   3.699  0.00  0.00    +0.000 A 
ATOM      9  C   UNL     1      -3.212 -11.732   4.001  0.00  0.00    +0.000 A 
ATOM     10 CL   UNL     1      -3.940 -10.895   5.393  0.00  0.00    +0.000 Cl
ATOM     11  H   UNL     1      -3.829 -15.655   2.424  0.00  0.00    +0.000 HD
ENDROOT
BRANCH   1  15
ATOM     12  C   UNL     1      -0.884  -7.092   3.909  0.00  0.00    +0.000 A 
ATOM     13  C   UNL     1      -1.369  -7.422   2.654  0.00  0.00    +0.000 A 
ATOM     14  C   UNL     1      -1.995  -8.690   2.596  0.00  0.00    +0.000 A 
ATOM     15  C   UNL     1      -1.843  -9.642   3.499  0.00  0.00    +0.000 A 
ATOM     16  C   UNL     1      -1.296  -9.265   4.694  0.00  0.00    +0.000 A 
ATOM     17  C   UNL     1      -0.781  -8.004   4.869  0.00  0.00    +0.000 A 
BRANCH  12  21
ATOM     18  C   UNL     1       0.448  -3.094   4.602  0.00  0.00    +0.000 A 
ATOM     19  C   UNL     1      -0.848  -3.295   4.157  0.00  0.00    +0.000 A 
ATOM     20  C   UNL     1      -1.255  -4.650   4.171  0.00  0.00    +0.000 A 
ATOM     21  C   UNL     1      -0.430  -5.679   4.237  0.00  0.00    +0.000 A 
ATOM     22  C   UNL     1       0.855  -5.405   4.616  0.00  0.00    +0.000 A 
ATOM     23  C   UNL     1       1.290  -4.109   4.751  0.00  0.00    +0.000 A 
BRANCH  18  24
ATOM     24  C   UNL     1       0.963  -1.700   4.921  0.00  0.00    +0.000 C 
BRANCH  24  28
ATOM     25  S   UNL     1       1.133  -1.058   2.368  0.00  0.00    +0.000 S 
ATOM     26  C   UNL     1       0.530  -2.668   1.803  0.00  0.00    +0.000 C 
ATOM     27  O   UNL     1       2.663  -1.058   2.368  0.00  0.00    +0.000 OA
ATOM     28  N   UNL     1       0.608  -0.784   3.828  0.00  0.00    +0.000 NA
BRANCH  25  30
ATOM     29  C   UNL     1       1.036  -0.056  -0.075  0.00  0.00    +0.000 C 
ATOM     30  N   UNL     1       0.546   0.201   1.287  0.00  0.00    +0.000 NA
ATOM     31  C   UNL     1      -0.924   0.201   1.287  0.00  0.00    +0.000 C 
ENDBRANCH  25  30
ENDBRANCH  24  28
ENDBRANCH  18  24
ENDBRANCH  12  21
ENDBRANCH   1  15
BRANCH   5  32
ATOM     32  O   UNL     1      -2.237 -16.235   0.166  0.00  0.00    +0.000 OA
BRANCH  32  33
ATOM     33  C   UNL     1      -1.336 -16.258  -0.932  0.00  0.00    +0.000 C 
ATOM     34  C   UNL     1      -0.082 -16.060  -0.496  0.00  0.00    +0.000 C 
ATOM     35  O   UNL     1       0.202 -14.634  -0.454  0.00  0.00    +0.000 OA
ATOM     36  C   UNL     1      -0.769 -13.965  -1.445  0.00  0.00    +0.000 C 
ATOM     37  C   UNL     1      -0.011 -13.564  -2.693  0.00  0.00    +0.000 C 
ATOM     38  C   UNL     1       0.059 -14.668  -3.487  0.00  0.00    +0.000 C 
ATOM     39  O   UNL     1      -1.121 -15.495  -3.293  0.00  0.00    +0.000 OA
ATOM     40  C   UNL     1      -1.677 -15.143  -1.900  0.00  0.00    +0.000 C 
BRANCH  37  41
ATOM     41  O   UNL     1       1.288 -13.091  -2.367  0.00  0.00    +0.000 OA
ATOM     42  H   UNL     1       1.794 -13.809  -1.890  0.00  0.00    +0.000 HD
ENDBRANCH  37  41
ENDBRANCH  32  33
ENDBRANCH   5  32
TORSDOF 8
