REMARK  Name = 
REMARK  7 active torsions:
REMARK  status: ('A' for Active; 'I' for Inactive)
REMARK    1  A    between atoms: C_2  and  C_3
REMARK    2  A    between atoms: C_8  and  C_9
REMARK    3  A    between atoms: C_9  and  O_11
REMARK    4  A    between atoms: C_14  and  C_15
REMARK    5  A    between atoms: C_18  and  C_19
REMARK    6  A    between atoms: C_19  and  C_20
REMARK    7  A    between atoms: C_20  and  O_21
REMARK                            x       y       z     vdW  Elec       q    Type
REMARK                         _______ _______ _______ _____ _____    ______ ____
ROOT
ATOM      1  C   UNL     1       3.848   0.039   0.063  0.00  0.00    +0.000 A 
ATOM      2  C   UNL     1       4.531  -1.157   0.063  0.00  0.00    +0.000 A 
ATOM      3  C   UNL     1       5.922  -1.163   0.074  0.00  0.00    +0.000 A 
ATOM      4  N   UNL     1       6.870  -2.165   0.082  0.00  0.00    +0.000 N 
ATOM      5  C   UNL     1       8.142  -1.586   0.092  0.00  0.00    +0.000 A 
ATOM      6  C   UNL     1       8.045  -0.289   0.091  0.00  0.00    +0.000 A 
ATOM      7  C   UNL     1       6.624   0.055   0.080  0.00  0.00    +0.000 A 
ATOM      8  C   UNL     1       5.921   1.264   0.075  0.00  0.00    +0.000 A 
ATOM      9  C   UNL     1       4.540   1.250   0.063  0.00  0.00    +0.000 A 
ATOM     10  H   UNL     1       6.674  -3.166   0.080  0.00  0.00    +0.000 HD
ENDROOT
BRANCH   9  11
ATOM     11  C   UNL     1       3.771   2.561   0.050  0.00  0.00    +0.000 A 
ATOM     12  C   UNL     1       2.870   2.868   1.107  0.00  0.00    +0.000 A 
ATOM     13  C   UNL     1       1.954   3.921   0.948  0.00  0.00    +0.000 A 
ATOM     14  C   UNL     1       2.104   4.772  -0.024  0.00  0.00    +0.000 A 
ATOM     15  C   UNL     1       3.185   4.648  -0.906  0.00  0.00    +0.000 A 
ATOM     16  C   UNL     1       3.925   3.441  -0.941  0.00  0.00    +0.000 A 
BRANCH  14  17
ATOM     17  C   UNL     1       1.105   5.904  -0.202  0.00  0.00    +0.000 C 
ATOM     18  C   UNL     1       1.010   7.331  -0.744  0.00  0.00    +0.000 C 
ATOM     19  C   UNL     1       0.211   6.206  -1.407  0.00  0.00    +0.000 C 
BRANCH  17  20
ATOM     20  C   UNL     1       1.090   5.368   1.221  0.00  0.00    +0.000 C 
BRANCH  20  21
ATOM     21  O   UNL     1       0.744   3.991   1.205  0.00  0.00    +0.000 OA
ATOM     22  H   UNL     1      -0.162   3.880   0.797  0.00  0.00    +0.000 HD
ENDBRANCH  20  21
ENDBRANCH  17  20
ENDBRANCH  14  17
ENDBRANCH   9  11
BRANCH   1  24
ATOM     23  N   UNL     1       1.067   0.039   0.063  0.00  0.00    +0.000 NA
ATOM     24  C   UNL     1       2.328   0.039   0.063  0.00  0.00    +0.000 C 
ENDBRANCH   1  24
BRANCH   6  25
ATOM     25  C   UNL     1       9.204   0.695   0.101  0.00  0.00    +0.000 C 
ATOM     26  O   UNL     1      10.401   0.267   0.110  0.00  0.00    +0.000 OA
BRANCH  25  27
ATOM     27  O   UNL     1       8.949   2.092   0.099  0.00  0.00    +0.000 OA
ATOM     28  H   UNL     1       9.712   2.739   0.105  0.00  0.00    +0.000 HD
ENDBRANCH  25  27
ENDBRANCH   6  25
TORSDOF 7
