
 OpenBabel03142511373D

 59 64  0  0  0  0  0  0  0  0999 V2000
    1.0663    0.0496    0.0561 C   0  0  0  0  0  0  0  0  0  0  0  0
    0.3861    0.5825    1.1068 C   0  0  0  0  0  0  0  0  0  0  0  0
   -1.1339    0.5825    1.1068 C   0  0  0  0  0  0  0  0  0  0  0  0
   -1.6072   -0.1488    2.2283 O   0  0  0  0  0  0  0  0  0  0  0  0
   -1.1339   -1.4856    2.1557 C   0  0  0  0  0  0  0  0  0  0  0  0
   -0.1545   -1.0755    1.3337 C   0  0  0  0  0  0  0  0  0  0  0  0
   -0.4513   -1.4934   -0.0278 O   0  0  0  0  0  0  0  0  0  0  0  0
   -1.4039   -2.6991    0.0826 C   0  0  0  0  0  0  0  0  0  0  0  0
   -0.6405   -3.9683   -0.2339 C   0  0  0  0  0  0  0  0  0  0  0  0
    0.2934   -3.7504   -1.2811 O   0  0  0  0  0  0  0  0  0  0  0  0
    1.3162   -2.7772   -1.1292 C   0  0  0  0  0  0  0  0  0  0  0  0
    2.2285   -2.7865   -0.2019 N   0  0  0  0  0  0  0  0  0  0  0  0
    3.0805   -1.6146   -0.3980 C   0  0  0  0  0  0  0  0  0  0  0  0
    4.1979   -1.1072    0.2718 N   0  0  0  0  0  0  0  0  0  0  0  0
    4.7928    0.0554   -0.1765 C   0  0  0  0  0  0  0  0  0  0  0  0
    6.0124    0.6073    0.5433 C   0  0  0  0  0  0  0  0  0  0  0  0
    7.1660   -0.1488    0.6008 C   0  0  0  0  0  0  0  0  0  0  0  0
    8.2529    0.3192    1.1941 C   0  0  0  0  0  0  0  0  0  0  0  0
    8.2785    1.5212    1.7451 C   0  0  0  0  0  0  0  0  0  0  0  0
    9.5534    2.0163    2.4085 C   0  0  0  0  0  0  0  0  0  0  0  0
   10.7051    2.1537    1.6598 C   0  0  0  0  0  0  0  0  0  0  0  0
   11.8208    2.6045    2.2114 C   0  0  0  0  0  0  0  0  0  0  0  0
   11.8746    2.9437    3.4885 C   0  0  0  0  0  0  0  0  0  0  0  0
   10.7601    2.8318    4.2971 C   0  0  0  0  0  0  0  0  0  0  0  0
    9.5755    2.3572    3.7533 C   0  0  0  0  0  0  0  0  0  0  0  0
    7.1603    2.3321    1.7248 C   0  0  0  0  0  0  0  0  0  0  0  0
    6.0019    1.8707    1.1166 C   0  0  0  0  0  0  0  0  0  0  0  0
    4.2797    0.7257   -1.2872 C   0  0  0  0  0  0  0  0  0  0  0  0
    5.0491    2.2315   -1.8429 Cl  0  0  0  0  0  0  0  0  0  0  0  0
    3.1828    0.2318   -1.9568 C   0  0  0  0  0  0  0  0  0  0  0  0
    2.5713   -0.9380   -1.5204 C   0  0  0  0  0  0  0  0  0  0  0  0
    1.4842   -1.6655   -1.9602 N   0  0  0  0  0  0  0  0  0  0  0  0
   -0.0079   -4.3476    0.9105 C   0  0  0  0  0  0  0  0  0  0  0  0
   -0.7959   -3.9517    2.0677 O   0  0  0  0  0  0  0  0  0  0  0  0
   -1.6902   -2.7846    1.6084 C   0  0  0  0  0  0  0  0  0  0  0  0
    0.5313   -0.3696   -0.7703 H   0  0  0  0  0  0  0  0  0  0  0  0
    2.1363    0.0496    0.0561 H   0  0  0  0  0  0  0  0  0  0  0  0
    0.9211    1.0016    1.9333 H   0  0  0  0  0  0  0  0  0  0  0  0
   -1.4906    1.5898    1.1615 H   0  0  0  0  0  0  0  0  0  0  0  0
   -1.4906    0.1262    0.2071 H   0  0  0  0  0  0  0  0  0  0  0  0
   -1.1648   -1.9019    3.1409 H   0  0  0  0  0  0  0  0  0  0  0  0
   -0.0846   -0.0084    1.3699 H   0  0  0  0  0  0  0  0  0  0  0  0
    0.7743   -1.5067    1.6439 H   0  0  0  0  0  0  0  0  0  0  0  0
   -2.2575   -2.5988   -0.5548 H   0  0  0  0  0  0  0  0  0  0  0  0
   -1.3166   -4.7344   -0.5514 H   0  0  0  0  0  0  0  0  0  0  0  0
    7.1818   -1.1240    0.1608 H   0  0  0  0  0  0  0  0  0  0  0  0
    9.1320   -0.2898    1.2287 H   0  0  0  0  0  0  0  0  0  0  0  0
   10.6957    1.8930    0.6221 H   0  0  0  0  0  0  0  0  0  0  0  0
   12.7006    2.6965    1.6093 H   0  0  0  0  0  0  0  0  0  0  0  0
   12.7921    3.3091    3.9003 H   0  0  0  0  0  0  0  0  0  0  0  0
   10.8099    3.1078    5.3297 H   0  0  0  0  0  0  0  0  0  0  0  0
    8.6982    2.2561    4.3575 H   0  0  0  0  0  0  0  0  0  0  0  0
    7.1872    3.3036    2.1725 H   0  0  0  0  0  0  0  0  0  0  0  0
    5.1199    2.4759    1.0901 H   0  0  0  0  0  0  0  0  0  0  0  0
    2.8011    0.7480   -2.8128 H   0  0  0  0  0  0  0  0  0  0  0  0
    0.8985   -1.4303   -2.7615 H   0  0  0  0  0  0  0  0  0  0  0  0
    0.9495   -3.8722    0.9574 H   0  0  0  0  0  0  0  0  0  0  0  0
    0.1150   -5.4106    0.9121 H   0  0  0  0  0  0  0  0  0  0  0  0
   -2.7106   -2.9238    1.8986 H   0  0  0  0  0  0  0  0  0  0  0  0
  1  2  2  0  0  0  0
  1 36  1  0  0  0  0
  1 37  1  0  0  0  0
  2  3  1  0  0  0  0
  2 38  1  0  0  0  0
  3  4  1  0  0  0  0
  3 39  1  0  0  0  0
  3 40  1  0  0  0  0
  4  5  1  0  0  0  0
  5  6  1  0  0  0  0
  5 35  1  0  0  0  0
  5 41  1  0  0  0  0
  6  7  1  0  0  0  0
  6 42  1  0  0  0  0
  6 43  1  0  0  0  0
  7  8  1  0  0  0  0
  8  9  1  0  0  0  0
  8 35  1  0  0  0  0
  8 44  1  0  0  0  0
  9 10  1  0  0  0  0
  9 33  1  0  0  0  0
  9 45  1  0  0  0  0
 10 11  1  0  0  0  0
 11 12  2  0  0  0  0
 11 32  1  0  0  0  0
 12 13  1  0  0  0  0
 13 14  1  0  0  0  0
 13 31  2  0  0  0  0
 14 15  2  0  0  0  0
 15 16  1  0  0  0  0
 15 28  1  0  0  0  0
 16 17  1  0  0  0  0
 16 27  2  0  0  0  0
 17 18  2  0  0  0  0
 17 46  1  0  0  0  0
 18 19  1  0  0  0  0
 18 47  1  0  0  0  0
 19 20  1  0  0  0  0
 19 26  2  0  0  0  0
 20 21  1  0  0  0  0
 20 25  2  0  0  0  0
 21 22  2  0  0  0  0
 21 48  1  0  0  0  0
 22 23  1  0  0  0  0
 22 49  1  0  0  0  0
 23 24  2  0  0  0  0
 23 50  1  0  0  0  0
 24 25  1  0  0  0  0
 24 51  1  0  0  0  0
 25 52  1  0  0  0  0
 26 27  1  0  0  0  0
 26 53  1  0  0  0  0
 27 54  1  0  0  0  0
 28 29  1  0  0  0  0
 28 30  2  0  0  0  0
 30 31  1  0  0  0  0
 30 55  1  0  0  0  0
 31 32  1  0  0  0  0
 32 56  1  0  0  0  0
 33 34  1  0  0  0  0
 33 57  1  0  0  0  0
 33 58  1  0  0  0  0
 34 35  1  0  0  0  0
 35 59  1  0  0  0  0
M  END
