REMARK  Name = 
REMARK  7 active torsions:
REMARK  status: ('A' for Active; 'I' for Inactive)
REMARK    1  A    between atoms: C_2  and  O_3
REMARK    2  A    between atoms: C_2  and  C_4
REMARK    3  A    between atoms: C_11  and  O_12
REMARK    4  A    between atoms: O_12  and  C_13
REMARK    5  A    between atoms: C_13  and  C_14
REMARK    6  A    between atoms: N_23  and  C_24
REMARK    7  A    between atoms: C_24  and  C_25
REMARK                            x       y       z     vdW  Elec       q    Type
REMARK                         _______ _______ _______ _____ _____    ______ ____
ROOT
ATOM      1  C   UNL     1       3.023   0.527   1.264  0.00  0.00    +0.000 C 
ATOM      2  C   UNL     1       2.709  -0.336   2.490  0.00  0.00    +0.000 C 
ATOM      3  C   UNL     1       3.577   0.121   3.668  0.00  0.00    +0.000 C 
ATOM      4  C   UNL     1       3.455   1.619   3.798  0.00  0.00    +0.000 A 
ATOM      5  C   UNL     1       2.968   2.433   2.835  0.00  0.00    +0.000 A 
ATOM      6  C   UNL     1       2.997   3.727   3.275  0.00  0.00    +0.000 A 
ATOM      7  C   UNL     1       2.620   4.897   2.676  0.00  0.00    +0.000 A 
ATOM      8  C   UNL     1       2.744   6.077   3.323  0.00  0.00    +0.000 A 
ATOM      9  C   UNL     1       3.264   6.121   4.624  0.00  0.00    +0.000 A 
ATOM     10  C   UNL     1       3.646   4.960   5.235  0.00  0.00    +0.000 A 
ATOM     11  C   UNL     1       3.509   3.747   4.550  0.00  0.00    +0.000 A 
ATOM     12  N   UNL     1       3.808   2.415   4.907  0.00  0.00    +0.000 N 
ATOM     13  C   UNL     1       2.483   1.946   1.488  0.00  0.00    +0.000 C 
ENDROOT
BRANCH   1  15
ATOM     14  O   UNL     1       0.993  -0.055   0.083  0.00  0.00    +0.000 OA
ATOM     15  C   UNL     1       2.264  -0.055   0.083  0.00  0.00    +0.000 C 
BRANCH  15  16
ATOM     16  O   UNL     1       2.974  -0.599  -1.020  0.00  0.00    +0.000 OA
ATOM     17  H   UNL     1       3.974  -0.599  -1.020  0.00  0.00    +0.000 HD
ENDBRANCH  15  16
ENDBRANCH   1  15
BRANCH   8  18
ATOM     18  O   UNL     1       2.344   7.279   2.681  0.00  0.00    +0.000 OA
BRANCH  18  19
ATOM     19  C   UNL     1       2.473   8.521   3.357  0.00  0.00    +0.000 C 
BRANCH  19  20
ATOM     20  C   UNL     1       1.645   8.492   4.632  0.00  0.00    +0.000 A 
ATOM     21  C   UNL     1       1.341   7.258   5.270  0.00  0.00    +0.000 A 
ATOM     22  C   UNL     1       0.344   7.220   6.258  0.00  0.00    +0.000 A 
ATOM     23  C   UNL     1      -0.101   8.326   6.777  0.00  0.00    +0.000 A 
ATOM     24  C   UNL     1       0.422   9.557   6.359  0.00  0.00    +0.000 A 
ATOM     25  C   UNL     1       1.190   9.625   5.171  0.00  0.00    +0.000 A 
ENDBRANCH  19  20
ENDBRANCH  18  19
ENDBRANCH   8  18
BRANCH  12  26
ATOM     26  C   UNL     1       4.373   1.950   6.182  0.00  0.00    +0.000 C 
BRANCH  26  27
ATOM     27  C   UNL     1       3.406   0.981   6.842  0.00  0.00    +0.000 A 
ATOM     28  C   UNL     1       3.068  -0.202   6.128  0.00  0.00    +0.000 A 
ATOM     29  C   UNL     1       1.999  -0.996   6.576  0.00  0.00    +0.000 A 
ATOM     30  C   UNL     1       1.506  -0.812   7.766  0.00  0.00    +0.000 A 
ATOM     31  C   UNL     1       2.046   0.172   8.605  0.00  0.00    +0.000 A 
ATOM     32  C   UNL     1       2.901   1.162   8.063  0.00  0.00    +0.000 A 
ENDBRANCH  26  27
ENDBRANCH  12  26
TORSDOF 7
