
 OpenBabel03132514253D

 47 51  0  0  0  0  0  0  0  0999 V2000
    2.5490    0.5710    0.0100 C   0  0  0  0  0  0  0  0  0  0  0  0
    1.1040    0.2090   -0.0070 C   0  0  0  0  0  0  0  0  0  0  0  0
   -0.0230    0.9930   -0.0080 C   0  0  0  0  0  0  0  0  0  0  0  0
   -1.1600    0.1200    0.0130 C   0  0  0  0  0  0  0  0  0  0  0  0
   -2.6060    0.5470   -0.0040 C   0  0  0  0  0  0  0  0  0  0  0  0
   -0.6760   -1.1650    0.0080 C   0  0  0  0  0  0  0  0  0  0  0  0
   -1.5072   -2.4375    0.0211 C   0  0  0  0  0  0  0  0  0  0  0  0
   -1.3738   -3.3175    1.0288 C   0  0  0  0  0  0  0  0  0  0  0  0
   -0.4684   -3.0372    2.1837 C   0  0  0  0  0  0  0  0  0  0  0  0
    0.2743   -2.0682    2.3502 O   0  0  0  0  0  0  0  0  0  0  0  0
   -0.6150   -4.0599    3.0616 N   0  0  0  0  0  0  0  0  0  0  0  0
   -1.5277   -5.0089    2.5881 C   0  0  0  0  0  0  0  0  0  0  0  0
   -1.9063   -6.1709    3.2185 C   0  0  0  0  0  0  0  0  0  0  0  0
   -2.7966   -7.0025    2.5485 C   0  0  0  0  0  0  0  0  0  0  0  0
   -3.2419   -6.6566    1.2805 C   0  0  0  0  0  0  0  0  0  0  0  0
   -4.1682   -7.6046    0.5364 C   0  0  0  0  0  0  0  0  0  0  0  0
   -5.3432   -7.9632    1.1789 C   0  0  0  0  0  0  0  0  0  0  0  0
   -6.1850   -8.9092    0.6209 C   0  0  0  0  0  0  0  0  0  0  0  0
   -5.8521   -9.4823   -0.6101 C   0  0  0  0  0  0  0  0  0  0  0  0
   -6.6772  -10.4656   -1.2847 C   0  0  0  0  0  0  0  0  0  0  0  0
   -6.4669  -10.9025   -2.4750 N   0  0  0  0  0  0  0  0  0  0  0  0
   -5.3564  -10.4212   -3.1608 N   0  0  0  0  0  0  0  0  0  0  0  0
   -4.3888   -9.5978   -2.6190 C   0  0  0  0  0  0  0  0  0  0  0  0
   -3.3737   -9.3009   -3.2448 O   0  0  0  0  0  0  0  0  0  0  0  0
   -4.6887   -9.0920   -1.2769 C   0  0  0  0  0  0  0  0  0  0  0  0
   -3.8415   -8.1568   -0.6742 C   0  0  0  0  0  0  0  0  0  0  0  0
   -2.8626   -5.4658    0.6742 C   0  0  0  0  0  0  0  0  0  0  0  0
   -2.0015   -4.6029    1.3399 C   0  0  0  0  0  0  0  0  0  0  0  0
    0.6960   -1.0920   -0.0110 N   0  0  0  0  0  0  0  0  0  0  0  0
    2.7801    1.1570   -0.8550 H   0  0  0  0  0  0  0  0  0  0  0  0
    2.7646    1.1369    0.8922 H   0  0  0  0  0  0  0  0  0  0  0  0
    3.1402   -0.3208    0.0050 H   0  0  0  0  0  0  0  0  0  0  0  0
   -0.0482    2.0626   -0.0219 H   0  0  0  0  0  0  0  0  0  0  0  0
   -2.8080    1.1564    0.8520 H   0  0  0  0  0  0  0  0  0  0  0  0
   -2.8022    1.1067   -0.8946 H   0  0  0  0  0  0  0  0  0  0  0  0
   -3.2339   -0.3191    0.0185 H   0  0  0  0  0  0  0  0  0  0  0  0
   -2.1987   -2.6329   -0.7717 H   0  0  0  0  0  0  0  0  0  0  0  0
   -0.1233   -4.1287    3.9526 H   0  0  0  0  0  0  0  0  0  0  0  0
   -1.5302   -6.4252    4.1874 H   0  0  0  0  0  0  0  0  0  0  0  0
   -3.1373   -7.9063    3.0090 H   0  0  0  0  0  0  0  0  0  0  0  0
   -5.6006   -7.5060    2.1114 H   0  0  0  0  0  0  0  0  0  0  0  0
   -7.0822   -9.1993    1.1267 H   0  0  0  0  0  0  0  0  0  0  0  0
   -7.5209  -10.8549   -0.7540 H   0  0  0  0  0  0  0  0  0  0  0  0
   -5.2486  -10.6971   -4.1368 H   0  0  0  0  0  0  0  0  0  0  0  0
   -2.9328   -7.8707   -1.1614 H   0  0  0  0  0  0  0  0  0  0  0  0
   -3.2310   -5.2152   -0.2986 H   0  0  0  0  0  0  0  0  0  0  0  0
    1.3213   -1.8977   -0.0260 H   0  0  0  0  0  0  0  0  0  0  0  0
  1  2  1  0  0  0  0
  1 30  1  0  0  0  0
  1 31  1  0  0  0  0
  1 32  1  0  0  0  0
  2  3  2  0  0  0  0
  2 29  1  0  0  0  0
  3  4  1  0  0  0  0
  3 33  1  0  0  0  0
  4  5  1  0  0  0  0
  4  6  2  0  0  0  0
  5 34  1  0  0  0  0
  5 35  1  0  0  0  0
  5 36  1  0  0  0  0
  6  7  1  0  0  0  0
  6 29  1  0  0  0  0
  7  8  2  0  0  0  0
  7 37  1  0  0  0  0
  8  9  1  0  0  0  0
  8 28  1  0  0  0  0
  9 10  2  0  0  0  0
  9 11  1  0  0  0  0
 11 12  1  0  0  0  0
 11 38  1  0  0  0  0
 12 13  1  0  0  0  0
 12 28  2  0  0  0  0
 13 14  2  0  0  0  0
 13 39  1  0  0  0  0
 14 15  1  0  0  0  0
 14 40  1  0  0  0  0
 15 16  1  0  0  0  0
 15 27  2  0  0  0  0
 16 17  1  0  0  0  0
 16 26  2  0  0  0  0
 17 18  2  0  0  0  0
 17 41  1  0  0  0  0
 18 19  1  0  0  0  0
 18 42  1  0  0  0  0
 19 20  1  0  0  0  0
 19 25  2  0  0  0  0
 20 21  2  0  0  0  0
 20 43  1  0  0  0  0
 21 22  1  0  0  0  0
 22 23  1  0  0  0  0
 22 44  1  0  0  0  0
 23 24  2  0  0  0  0
 23 25  1  0  0  0  0
 25 26  1  0  0  0  0
 26 45  1  0  0  0  0
 27 28  1  0  0  0  0
 27 46  1  0  0  0  0
 29 47  1  0  0  0  0
M  END
