REMARK  Name = 
REMARK  2 active torsions:
REMARK  status: ('A' for Active; 'I' for Inactive)
REMARK    1  A    between atoms: C_4  and  C_5
REMARK    2  A    between atoms: C_15  and  C_16
REMARK                            x       y       z     vdW  Elec       q    Type
REMARK                         _______ _______ _______ _____ _____    ______ ____
ROOT
ATOM      1  O   UNL     1       0.006  -2.048  -0.005  0.00  0.00    +0.000 OA
ATOM      2  C   UNL     1       0.005  -0.822   0.050  0.00  0.00    +0.000 C 
ATOM      3  C   UNL     1      -1.271  -0.063   0.073  0.00  0.00    +0.000 C 
ATOM      4  C   UNL     1      -2.401  -0.746  -0.126  0.00  0.00    +0.000 C 
ATOM      5  C   UNL     1      -1.200   1.427   0.264  0.00  0.00    +0.000 C 
ATOM      6  N   UNL     1      -0.005   1.956  -0.412  0.00  0.00    +0.000 NA
ATOM      7  C   UNL     1       1.183   1.428   0.283  0.00  0.00    +0.000 C 
ATOM      8  C   UNL     1       1.275  -0.050   0.080  0.00  0.00    +0.000 C 
ATOM      9  C   UNL     1       2.407  -0.727  -0.138  0.00  0.00    +0.000 C 
ATOM     10  H   UNL     1      -0.006   2.975  -0.370  0.00  0.00    +0.000 HD
ENDROOT
BRANCH   4  11
ATOM     11  C   UNL     1      -2.350  -2.246  -0.365  0.00  0.00    +0.000 A 
ATOM     12  C   UNL     1      -1.805  -3.054   0.614  0.00  0.00    +0.000 A 
ATOM     13  C   UNL     1      -1.696  -4.429   0.388  0.00  0.00    +0.000 A 
ATOM     14  C   UNL     1      -2.167  -4.922  -0.823  0.00  0.00    +0.000 A 
ATOM     15  C   UNL     1      -2.719  -4.049  -1.732  0.00  0.00    +0.000 A 
ATOM     16  N   UNL     1      -2.806  -2.731  -1.531  0.00  0.00    +0.000 NA
ENDBRANCH   4  11
BRANCH   9  17
ATOM     17  C   UNL     1       2.359  -2.223  -0.402  0.00  0.00    +0.000 A 
ATOM     18  C   UNL     1       1.648  -2.685  -1.492  0.00  0.00    +0.000 A 
ATOM     19  C   UNL     1       1.547  -4.061  -1.714  0.00  0.00    +0.000 A 
ATOM     20  C   UNL     1       2.194  -4.906  -0.822  0.00  0.00    +0.000 A 
ATOM     21  C   UNL     1       2.902  -4.361   0.225  0.00  0.00    +0.000 A 
ATOM     22  N   UNL     1       2.984  -3.046   0.454  0.00  0.00    +0.000 NA
ENDBRANCH   9  17
TORSDOF 2
