REMARK  Name = 
REMARK  11 active torsions:
REMARK  status: ('A' for Active; 'I' for Inactive)
REMARK    1  A    between atoms: C_1  and  O_2
REMARK    2  A    between atoms: O_2  and  C_3
REMARK    3  A    between atoms: N_10  and  C_11
REMARK    4  A    between atoms: C_21  and  C_22
REMARK    5  A    between atoms: C_22  and  N_23
REMARK    6  A    between atoms: N_23  and  C_24
REMARK    7  A    between atoms: N_23  and  C_25
REMARK    8  A    between atoms: C_25  and  C_26
REMARK    9  A    between atoms: C_25  and  C_27
REMARK   10  A    between atoms: N_29  and  C_30
REMARK   11  A    between atoms: N_29  and  C_31
REMARK                            x       y       z     vdW  Elec       q    Type
REMARK                         _______ _______ _______ _____ _____    ______ ____
ROOT
ATOM      1  C   UNL     1       0.817   1.620  -1.955  0.00  0.00    +0.000 A 
ATOM      2  C   UNL     1      -0.168   2.242  -2.670  0.00  0.00    +0.000 A 
ATOM      3  C   UNL     1       0.108   3.440  -3.366  0.00  0.00    +0.000 A 
ATOM      4  N   UNL     1      -0.894   4.074  -4.056  0.00  0.00    +0.000 NA
ATOM      5  C   UNL     1      -0.568   5.174  -4.678  0.00  0.00    +0.000 A 
ATOM      6  N   UNL     1       0.671   5.753  -4.727  0.00  0.00    +0.000 NA
ATOM      7  C   UNL     1       1.642   5.151  -4.084  0.00  0.00    +0.000 A 
ATOM      8  N   UNL     1       2.994   5.725  -4.131  0.00  0.00    +0.000 N 
ATOM      9  C   UNL     1       1.423   3.956  -3.341  0.00  0.00    +0.000 A 
ATOM     10  C   UNL     1       2.428   3.287  -2.606  0.00  0.00    +0.000 A 
ATOM     11  C   UNL     1       2.123   2.144  -1.921  0.00  0.00    +0.000 A 
ATOM     12  H   UNL     1       3.760   5.268  -3.636  0.00  0.00    +0.000 HD
ENDROOT
BRANCH   8  13
ATOM     13  C   UNL     1       3.243   6.958  -4.892  0.00  0.00    +0.000 A 
ATOM     14  C   UNL     1       4.254   6.956  -5.831  0.00  0.00    +0.000 A 
ATOM     15  C   UNL     1       4.628   8.122  -6.486  0.00  0.00    +0.000 A 
ATOM     16  C   UNL     1       3.964   9.310  -6.183  0.00  0.00    +0.000 A 
ATOM     17  C   UNL     1       2.951   9.310  -5.243  0.00  0.00    +0.000 A 
ATOM     18 CL   UNL     1       2.093  10.771  -4.890  0.00  0.00    +0.000 Cl
ATOM     19  C   UNL     1       2.606   8.139  -4.607  0.00  0.00    +0.000 A 
ATOM     20  F   UNL     1       1.602   8.146  -3.708  0.00  0.00    +0.000 F 
ENDBRANCH   8  13
BRANCH   1  22
ATOM     21  C   UNL     1       0.947   0.039  -0.075  0.00  0.00    +0.000 C 
ATOM     22  O   UNL     1       0.474   0.371  -1.372  0.00  0.00    +0.000 OA
ENDBRANCH   1  22
BRANCH  11  23
ATOM     23  C   UNL     1       3.202   1.435  -1.119  0.00  0.00    +0.000 C 
BRANCH  23  24
ATOM     24  N   UNL     1       4.296   1.034  -2.015  0.00  0.00    +0.000 NA
ATOM     25  C   UNL     1       5.339   0.348  -1.239  0.00  0.00    +0.000 C 
BRANCH  24  26
ATOM     26  C   UNL     1       3.776   0.126  -3.048  0.00  0.00    +0.000 C 
ATOM     27  C   UNL     1       3.185  -1.108  -2.386  0.00  0.00    +0.000 C 
BRANCH  26  28
ATOM     28  C   UNL     1       2.698   0.836  -3.850  0.00  0.00    +0.000 C 
ATOM     29  O   UNL     1       2.840   0.997  -5.103  0.00  0.00    +0.000 OA
ATOM     30  N   UNL     1       1.491   1.337  -3.178  0.00  0.00    +0.000 N 
ATOM     31  C   UNL     1       1.326   1.151  -1.729  0.00  0.00    +0.000 C 
ATOM     32  C   UNL     1       0.448   2.023  -3.954  0.00  0.00    +0.000 C 
ENDBRANCH  26  28
ENDBRANCH  24  26
ENDBRANCH  23  24
ENDBRANCH  11  23
TORSDOF 6
