REMARK  Name = 
REMARK  3 active torsions:
REMARK  status: ('A' for Active; 'I' for Inactive)
REMARK    1  A    between atoms: C_1  and  C_2
REMARK    2  A    between atoms: C_5  and  C_6
REMARK    3  A    between atoms: C_21  and  C_22
REMARK                            x       y       z     vdW  Elec       q    Type
REMARK                         _______ _______ _______ _____ _____    ______ ____
ROOT
ATOM      1  C   UNL     1      -2.014  -4.162  -3.905  0.00  0.00    +0.000 C 
ATOM      2  C   UNL     1      -2.543  -2.997  -4.367  0.00  0.00    +0.000 C 
ATOM      3  C   UNL     1      -2.139  -1.675  -3.735  0.00  0.00    +0.000 C 
ATOM      4  O   UNL     1      -1.306  -1.658  -2.775  0.00  0.00    +0.000 OA
ATOM      5  N   UNL     1      -2.710  -0.416  -4.235  0.00  0.00    +0.000 N 
ATOM      6  C   UNL     1      -3.673  -0.436  -5.345  0.00  0.00    +0.000 A 
ATOM      7  C   UNL     1      -4.668  -1.315  -5.367  0.00  0.00    +0.000 A 
ATOM      8  C   UNL     1      -5.539  -1.345  -6.355  0.00  0.00    +0.000 A 
ATOM      9  C   UNL     1      -5.476  -0.507  -7.375  0.00  0.00    +0.000 A 
ATOM     10  C   UNL     1      -4.519   0.401  -7.431  0.00  0.00    +0.000 A 
ATOM     11  C   UNL     1      -4.406   1.311  -8.476  0.00  0.00    +0.000 A 
ATOM     12  C   UNL     1      -3.680   2.490  -8.180  0.00  0.00    +0.000 A 
ATOM     13  C   UNL     1      -2.615   2.378  -7.315  0.00  0.00    +0.000 A 
ATOM     14  C   UNL     1      -2.567   1.401  -6.455  0.00  0.00    +0.000 A 
ATOM     15  C   UNL     1      -3.564   0.466  -6.398  0.00  0.00    +0.000 A 
ATOM     16  H   UNL     1      -2.439   0.471  -3.811  0.00  0.00    +0.000 HD
ENDROOT
BRANCH   1  21
ATOM     17  C   UNL     1       1.072   0.069  -0.006  0.00  0.00    +0.000 C 
ATOM     18  C   UNL     1       0.566  -1.248  -0.571  0.00  0.00    +0.000 A 
ATOM     19  C   UNL     1      -0.310  -1.453  -1.595  0.00  0.00    +0.000 A 
ATOM     20  N   UNL     1      -0.354  -2.789  -1.822  0.00  0.00    +0.000 N 
ATOM     21  C   UNL     1      -1.018  -4.141  -2.757  0.00  0.00    +0.000 A 
ATOM     22  C   UNL     1      -0.158  -5.471  -1.934  0.00  0.00    +0.000 A 
ATOM     23  C   UNL     1      -0.233  -6.964  -2.207  0.00  0.00    +0.000 C 
ATOM     24  N   UNL     1       0.583  -4.811  -0.999  0.00  0.00    +0.000 NA
ATOM     25  C   UNL     1       0.504  -3.413  -0.913  0.00  0.00    +0.000 A 
ATOM     26  S   UNL     1       1.041  -2.386  -0.168  0.00  0.00    +0.000 S 
ENDBRANCH   1  21
TORSDOF 1
