
 OpenBabel03132514253D

 67 72  0  0  0  0  0  0  0  0999 V2000
    0.9556    0.0548    0.0709 C   0  0  0  0  0  0  0  0  0  0  0  0
    0.4656   -0.1297   -1.3027 N   0  0  0  0  0  0  0  0  0  0  0  0
   -1.0044   -0.1297   -1.3027 C   0  0  0  0  0  0  0  0  0  0  0  0
    0.9556    0.9677   -2.1492 C   0  0  0  0  0  0  0  0  0  0  0  0
    0.4489    2.2931   -1.6042 C   0  0  0  0  0  0  0  0  0  0  0  0
    0.9223    2.4713   -0.2774 O   0  0  0  0  0  0  0  0  0  0  0  0
    0.5792    1.5321    0.7309 C   0  0  0  0  0  0  0  0  0  0  0  0
    0.3321    1.9763    2.0194 C   0  0  0  0  0  0  0  0  0  0  0  0
    0.4775    0.9752    3.0087 C   0  0  0  0  0  0  0  0  0  0  0  0
    0.4844   -0.3227    2.7655 C   0  0  0  0  0  0  0  0  0  0  0  0
    0.3017   -1.3463    3.8742 C   0  0  0  0  0  0  0  0  0  0  0  0
   -0.8250   -1.2317    4.6716 C   0  0  0  0  0  0  0  0  0  0  0  0
   -0.7314   -1.9282    5.8997 C   0  0  0  0  0  0  0  0  0  0  0  0
    0.1416   -2.8862    6.1528 C   0  0  0  0  0  0  0  0  0  0  0  0
   -0.0174   -3.8214    7.3404 C   0  0  0  0  0  0  0  0  0  0  0  0
   -1.0916   -4.6884    7.3702 N   0  0  0  0  0  0  0  0  0  0  0  0
   -1.1944   -5.6263    8.4019 C   0  0  0  0  0  0  0  0  0  0  0  0
   -2.1693   -6.6644    8.7328 N   0  0  0  0  0  0  0  0  0  0  0  0
   -1.7698   -7.2561    9.8202 C   0  0  0  0  0  0  0  0  0  0  0  0
   -2.4517   -8.3236   10.4620 O   0  0  0  0  0  0  0  0  0  0  0  0
   -3.6653   -8.8203    9.9172 C   0  0  0  0  0  0  0  0  0  0  0  0
   -3.4337   -9.2749    8.6751 C   0  0  0  0  0  0  0  0  0  0  0  0
   -3.6480   -8.2039    7.7141 O   0  0  0  0  0  0  0  0  0  0  0  0
   -4.5933   -7.1924    8.3901 C   0  0  0  0  0  0  0  0  0  0  0  0
   -5.9767   -7.3236    7.7878 C   0  0  0  0  0  0  0  0  0  0  0  0
   -5.9005   -7.5732    6.3920 O   0  0  0  0  0  0  0  0  0  0  0  0
   -6.5952   -8.3510    8.4324 C   0  0  0  0  0  0  0  0  0  0  0  0
   -6.1229   -8.4312    9.8062 O   0  0  0  0  0  0  0  0  0  0  0  0
   -4.7392   -7.7546    9.8323 C   0  0  0  0  0  0  0  0  0  0  0  0
   -0.5719   -6.6891   10.2658 N   0  0  0  0  0  0  0  0  0  0  0  0
   -0.2045   -5.6802    9.3990 C   0  0  0  0  0  0  0  0  0  0  0  0
    0.8704   -4.7999    9.3521 C   0  0  0  0  0  0  0  0  0  0  0  0
    0.9649   -3.8834    8.3290 C   0  0  0  0  0  0  0  0  0  0  0  0
    2.3513   -2.7687    8.2674 Cl  0  0  0  0  0  0  0  0  0  0  0  0
    1.1963   -2.9915    5.2891 C   0  0  0  0  0  0  0  0  0  0  0  0
    1.2404   -2.2489    4.1338 C   0  0  0  0  0  0  0  0  0  0  0  0
    0.6647   -0.6963    1.4626 C   0  0  0  0  0  0  0  0  0  0  0  0
    0.6652    0.2364    0.4537 C   0  0  0  0  0  0  0  0  0  0  0  0
    0.5989   -0.7440    0.6871 H   0  0  0  0  0  0  0  0  0  0  0  0
    0.5989    0.9878    0.4545 H   0  0  0  0  0  0  0  0  0  0  0  0
    2.0256    0.0548    0.0709 H   0  0  0  0  0  0  0  0  0  0  0  0
   -1.3611    0.8033   -0.9191 H   0  0  0  0  0  0  0  0  0  0  0  0
   -1.3611   -0.2639   -2.3025 H   0  0  0  0  0  0  0  0  0  0  0  0
   -1.3611   -0.9284   -0.6865 H   0  0  0  0  0  0  0  0  0  0  0  0
    2.0256    0.9677   -2.1492 H   0  0  0  0  0  0  0  0  0  0  0  0
    0.5989    0.8334   -3.1491 H   0  0  0  0  0  0  0  0  0  0  0  0
    0.8056    3.0918   -2.2204 H   0  0  0  0  0  0  0  0  0  0  0  0
   -0.6211    2.2931   -1.6042 H   0  0  0  0  0  0  0  0  0  0  0  0
    0.0562    2.9850    2.2461 H   0  0  0  0  0  0  0  0  0  0  0  0
    0.5898    1.2919    4.0246 H   0  0  0  0  0  0  0  0  0  0  0  0
   -1.6878   -0.6676    4.3850 H   0  0  0  0  0  0  0  0  0  0  0  0
   -1.4157   -1.6602    6.6774 H   0  0  0  0  0  0  0  0  0  0  0  0
   -4.0114   -9.5971   10.5666 H   0  0  0  0  0  0  0  0  0  0  0  0
   -2.4222   -9.6170    8.6054 H   0  0  0  0  0  0  0  0  0  0  0  0
   -4.1014  -10.0833    8.4618 H   0  0  0  0  0  0  0  0  0  0  0  0
   -4.2352   -6.1876    8.3072 H   0  0  0  0  0  0  0  0  0  0  0  0
   -6.5267   -6.4167    7.9294 H   0  0  0  0  0  0  0  0  0  0  0  0
   -5.3898   -8.4179    6.2319 H   0  0  0  0  0  0  0  0  0  0  0  0
   -6.3706   -9.2682    7.9290 H   0  0  0  0  0  0  0  0  0  0  0  0
   -7.6524   -8.1860    8.4300 H   0  0  0  0  0  0  0  0  0  0  0  0
   -4.6529   -7.0506   10.6333 H   0  0  0  0  0  0  0  0  0  0  0  0
   -0.0538   -6.9749   11.0966 H   0  0  0  0  0  0  0  0  0  0  0  0
    1.6241   -4.8347   10.1108 H   0  0  0  0  0  0  0  0  0  0  0  0
    1.9989   -3.6617    5.5160 H   0  0  0  0  0  0  0  0  0  0  0  0
    2.0385   -2.3993    3.4371 H   0  0  0  0  0  0  0  0  0  0  0  0
    0.8074   -1.7299    1.2254 H   0  0  0  0  0  0  0  0  0  0  0  0
    0.7355   -0.0843   -0.5647 H   0  0  0  0  0  0  0  0  0  0  0  0
  1  2  1  0  0  0  0
  1 39  1  0  0  0  0
  1 40  1  0  0  0  0
  1 41  1  0  0  0  0
  2  3  1  0  0  0  0
  2  4  1  0  0  0  0
  3 42  1  0  0  0  0
  3 43  1  0  0  0  0
  3 44  1  0  0  0  0
  4  5  1  0  0  0  0
  4 45  1  0  0  0  0
  4 46  1  0  0  0  0
  5  6  1  0  0  0  0
  5 47  1  0  0  0  0
  5 48  1  0  0  0  0
  6  7  1  0  0  0  0
  7  8  1  0  0  0  0
  7 38  2  0  0  0  0
  8  9  2  0  0  0  0
  8 49  1  0  0  0  0
  9 10  1  0  0  0  0
  9 50  1  0  0  0  0
 10 11  1  0  0  0  0
 10 37  2  0  0  0  0
 11 12  1  0  0  0  0
 11 36  2  0  0  0  0
 12 13  2  0  0  0  0
 12 51  1  0  0  0  0
 13 14  1  0  0  0  0
 13 52  1  0  0  0  0
 14 15  1  0  0  0  0
 14 35  2  0  0  0  0
 15 16  1  0  0  0  0
 15 33  2  0  0  0  0
 16 17  2  0  0  0  0
 17 18  1  0  0  0  0
 17 31  1  0  0  0  0
 18 19  2  0  0  0  0
 19 20  1  0  0  0  0
 19 30  1  0  0  0  0
 20 21  1  0  0  0  0
 21 22  1  0  0  0  0
 21 29  1  0  0  0  0
 21 53  1  0  0  0  0
 22 23  1  0  0  0  0
 22 54  1  0  0  0  0
 22 55  1  0  0  0  0
 23 24  1  0  0  0  0
 24 25  1  0  0  0  0
 24 29  1  0  0  0  0
 24 56  1  0  0  0  0
 25 26  1  0  0  0  0
 25 27  1  0  0  0  0
 25 57  1  0  0  0  0
 26 58  1  0  0  0  0
 27 28  1  0  0  0  0
 27 59  1  0  0  0  0
 27 60  1  0  0  0  0
 28 29  1  0  0  0  0
 29 61  1  0  0  0  0
 30 31  1  0  0  0  0
 30 62  1  0  0  0  0
 31 32  2  0  0  0  0
 32 33  1  0  0  0  0
 32 63  1  0  0  0  0
 33 34  1  0  0  0  0
 35 36  1  0  0  0  0
 35 64  1  0  0  0  0
 36 65  1  0  0  0  0
 37 38  1  0  0  0  0
 37 66  1  0  0  0  0
 38 67  1  0  0  0  0
M  END
