REMARK  Name = 
REMARK  8 active torsions:
REMARK  status: ('A' for Active; 'I' for Inactive)
REMARK    1  A    between atoms: C_1  and  N_2
REMARK    2  A    between atoms: N_2  and  C_3
REMARK    3  A    between atoms: N_2  and  S_4
REMARK    4  A    between atoms: S_4  and  N_7
REMARK    5  A    between atoms: N_7  and  C_8
REMARK    6  A    between atoms: C_13  and  N_14
REMARK    7  A    between atoms: N_14  and  C_15
REMARK    8  A    between atoms: C_20  and  C_21
REMARK                            x       y       z     vdW  Elec       q    Type
REMARK                         _______ _______ _______ _____ _____    ______ ____
ROOT
ATOM      1  N   UNL     1      -0.902   7.633   1.339  0.00  0.00    +0.000 N 
ATOM      2  H   UNL     1      -1.569   8.210   0.826  0.00  0.00    +0.000 HD
ENDROOT
BRANCH   1   8
ATOM      3  C   UNL     1      -0.285   3.955   2.044  0.00  0.00    +0.000 A 
ATOM      4  C   UNL     1      -1.316   3.369   1.331  0.00  0.00    +0.000 A 
ATOM      5  C   UNL     1      -2.230   4.145   0.641  0.00  0.00    +0.000 A 
ATOM      6  C   UNL     1      -2.075   5.515   0.671  0.00  0.00    +0.000 A 
ATOM      7  F   UNL     1      -2.981   6.270   0.006  0.00  0.00    +0.000 F 
ATOM      8  C   UNL     1      -1.048   6.171   1.345  0.00  0.00    +0.000 A 
ATOM      9  C   UNL     1      -0.170   5.332   2.026  0.00  0.00    +0.000 A 
ATOM     10  F   UNL     1       0.866   5.900   2.685  0.00  0.00    +0.000 F 
BRANCH   3  11
ATOM     11  N   UNL     1       0.560   3.079   2.868  0.00  0.00    +0.000 N 
ATOM     12  H   UNL     1       0.807   3.354   3.819  0.00  0.00    +0.000 HD
BRANCH  11  13
ATOM     13  S   UNL     1       1.147   1.554   2.214  0.00  0.00    +0.000 S 
ATOM     14  O   UNL     1       0.637   0.398   3.078  0.00  0.00    +0.000 OA
ATOM     15  O   UNL     1       2.678   1.554   2.214  0.00  0.00    +0.000 OA
BRANCH  13  17
ATOM     16  C   UNL     1       1.050   0.084   0.020  0.00  0.00    +0.000 C 
ATOM     17  N   UNL     1       0.560   1.358   0.566  0.00  0.00    +0.000 NA
ATOM     18  C   UNL     1      -0.909   1.358   0.566  0.00  0.00    +0.000 C 
ENDBRANCH  13  17
ENDBRANCH  11  13
ENDBRANCH   3  11
ENDBRANCH   1   8
BRANCH   1  19
ATOM     19  C   UNL     1       0.206   8.265   2.071  0.00  0.00    +0.000 A 
ATOM     20  N   UNL     1      -0.125   9.091   3.068  0.00  0.00    +0.000 NA
ATOM     21  C   UNL     1       0.871   9.622   3.795  0.00  0.00    +0.000 A 
ATOM     22  C   UNL     1       2.201   9.346   3.547  0.00  0.00    +0.000 A 
ATOM     23  C   UNL     1       2.541   8.499   2.489  0.00  0.00    +0.000 A 
ATOM     24  C   UNL     1       1.505   7.956   1.740  0.00  0.00    +0.000 A 
BRANCH  24  25
ATOM     25  C   UNL     1       1.803   7.032   0.570  0.00  0.00    +0.000 A 
ATOM     26  N   UNL     1       2.467   5.901   0.788  0.00  0.00    +0.000 NA
ATOM     27  C   UNL     1       2.580   5.010  -0.204  0.00  0.00    +0.000 A 
ATOM     28  N   UNL     1       2.116   5.083  -1.440  0.00  0.00    +0.000 NA
ATOM     29  C   UNL     1       1.451   6.226  -1.654  0.00  0.00    +0.000 A 
ATOM     30  N   UNL     1       0.805   6.558  -2.822  0.00  0.00    +0.000 NA
ATOM     31  C   UNL     1       0.245   7.719  -2.563  0.00  0.00    +0.000 A 
ATOM     32  N   UNL     1       0.477   8.175  -1.329  0.00  0.00    +0.000 N 
ATOM     33  C   UNL     1       1.267   7.236  -0.698  0.00  0.00    +0.000 A 
ATOM     34  H   UNL     1       0.135   9.049  -0.930  0.00  0.00    +0.000 HD
ENDBRANCH  24  25
ENDBRANCH   1  19
TORSDOF 6
