REMARK  Name = 
REMARK  5 active torsions:
REMARK  status: ('A' for Active; 'I' for Inactive)
REMARK    1  A    between atoms: C_1  and  N_2
REMARK    2  A    between atoms: C_3  and  C_5
REMARK    3  A    between atoms: C_11  and  C_12
REMARK    4  A    between atoms: C_12  and  C_13
REMARK    5  A    between atoms: N_20  and  C_21
REMARK                            x       y       z     vdW  Elec       q    Type
REMARK                         _______ _______ _______ _____ _____    ______ ____
ROOT
ATOM      1  C   UNL     1      -0.716   2.365  -0.776  0.00  0.00    +0.000 A 
ATOM      2  C   UNL     1      -1.139   1.247  -1.544  0.00  0.00    +0.000 A 
ATOM      3  C   UNL     1      -1.489   1.367  -2.853  0.00  0.00    +0.000 A 
ATOM      4  C   UNL     1      -1.416   2.651  -3.442  0.00  0.00    +0.000 A 
ATOM      5  N   UNL     1      -1.681   2.987  -4.713  0.00  0.00    +0.000 NA
ATOM      6  N   UNL     1      -1.447   4.327  -4.752  0.00  0.00    +0.000 N 
ATOM      7  C   UNL     1      -1.050   4.858  -3.557  0.00  0.00    +0.000 A 
ATOM      8  C   UNL     1      -1.024   3.777  -2.668  0.00  0.00    +0.000 A 
ATOM      9  C   UNL     1      -0.670   3.619  -1.305  0.00  0.00    +0.000 A 
ATOM     10  H   UNL     1      -1.559   4.886  -5.598  0.00  0.00    +0.000 HD
ENDROOT
BRANCH   1  13
ATOM     11  C   UNL     1       0.986   0.083   0.054  0.00  0.00    +0.000 C 
ATOM     12  N   UNL     1       0.496   1.020   1.075  0.00  0.00    +0.000 N 
ATOM     13  C   UNL     1      -0.349   2.157   0.684  0.00  0.00    +0.000 C 
ATOM     14  O   UNL     1      -0.772   2.967   1.567  0.00  0.00    +0.000 OA
ATOM     15  H   UNL     1       0.743   0.881   2.055  0.00  0.00    +0.000 HD
ENDBRANCH   1  13
BRANCH   7  16
ATOM     16  C   UNL     1      -0.710   6.309  -3.258  0.00  0.00    +0.000 C 
BRANCH  16  17
ATOM     17  C   UNL     1       0.449   6.749  -4.138  0.00  0.00    +0.000 A 
ATOM     18  C   UNL     1       0.291   6.700  -5.540  0.00  0.00    +0.000 A 
ATOM     19  C   UNL     1       1.305   7.026  -6.412  0.00  0.00    +0.000 A 
ATOM     20  C   UNL     1       2.517   7.420  -5.803  0.00  0.00    +0.000 A 
ATOM     21  C   UNL     1       2.686   7.503  -4.418  0.00  0.00    +0.000 A 
ATOM     22  C   UNL     1       4.012   7.989  -4.248  0.00  0.00    +0.000 A 
ATOM     23  N   UNL     1       4.606   8.177  -5.429  0.00  0.00    +0.000 NA
ATOM     24  N   UNL     1       3.688   7.825  -6.372  0.00  0.00    +0.000 N 
ATOM     25  C   UNL     1       4.020   7.817  -7.781  0.00  0.00    +0.000 C 
ATOM     26  C   UNL     1       1.620   7.150  -3.567  0.00  0.00    +0.000 A 
ENDBRANCH  16  17
ENDBRANCH   7  16
TORSDOF 3
