REMARK  Name = 
REMARK  7 active torsions:
REMARK  status: ('A' for Active; 'I' for Inactive)
REMARK    1  A    between atoms: C_2  and  C_3
REMARK    2  A    between atoms: C_3  and  O_4
REMARK    3  A    between atoms: O_4  and  C_5
REMARK    4  A    between atoms: C_9  and  O_10
REMARK    5  A    between atoms: O_10  and  C_11
REMARK    6  A    between atoms: C_15  and  C_16
REMARK    7  A    between atoms: C_19  and  C_20
REMARK                            x       y       z     vdW  Elec       q    Type
REMARK                         _______ _______ _______ _____ _____    ______ ____
ROOT
ATOM      1  C   UNL     1      -2.773   5.975   2.201  0.00  0.00    +0.000 A 
ATOM      2  N   UNL     1      -2.499   5.247   3.244  0.00  0.00    +0.000 NA
ATOM      3  C   UNL     1      -3.741   4.617   3.691  0.00  0.00    +0.000 A 
ATOM      4  N   UNL     1      -4.063   3.747   4.736  0.00  0.00    +0.000 NA
ATOM      5  C   UNL     1      -5.367   3.322   4.894  0.00  0.00    +0.000 A 
ATOM      6  C   UNL     1      -6.359   3.753   4.012  0.00  0.00    +0.000 A 
ATOM      7 CL   UNL     1      -8.033   3.184   4.221  0.00  0.00    +0.000 Cl
ATOM      8  C   UNL     1      -6.053   4.614   2.982  0.00  0.00    +0.000 A 
ATOM      9  C   UNL     1      -4.746   5.052   2.809  0.00  0.00    +0.000 A 
ATOM     10  N   UNL     1      -4.135   5.888   1.896  0.00  0.00    +0.000 N 
ATOM     11  H   UNL     1      -4.601   6.365   1.124  0.00  0.00    +0.000 HD
ENDROOT
BRANCH   5  12
ATOM     12  C   UNL     1      -5.724   2.382   6.034  0.00  0.00    +0.000 A 
ATOM     13  C   UNL     1      -5.658   2.870   7.324  0.00  0.00    +0.000 A 
ATOM     14  C   UNL     1      -6.108   2.154   8.342  0.00  0.00    +0.000 A 
ATOM     15  C   UNL     1      -6.640   0.956   8.165  0.00  0.00    +0.000 A 
ATOM     16  C   UNL     1      -6.739   0.406   6.902  0.00  0.00    +0.000 A 
ATOM     17  C   UNL     1      -6.271   1.127   5.812  0.00  0.00    +0.000 A 
BRANCH  15  18
ATOM     18  C   UNL     1      -7.149   0.176   9.366  0.00  0.00    +0.000 A 
ATOM     19  C   UNL     1      -8.262   0.662  10.024  0.00  0.00    +0.000 A 
ATOM     20  C   UNL     1      -8.846  -0.045  10.978  0.00  0.00    +0.000 A 
ATOM     21  C   UNL     1      -8.395  -1.237  11.332  0.00  0.00    +0.000 A 
ATOM     22  C   UNL     1      -7.286  -1.785  10.717  0.00  0.00    +0.000 A 
ATOM     23  C   UNL     1      -6.646  -1.068   9.717  0.00  0.00    +0.000 A 
ENDBRANCH  15  18
ENDBRANCH   5  12
BRANCH   1  24
ATOM     24  O   UNL     1      -1.856   6.697   1.393  0.00  0.00    +0.000 OA
BRANCH  24  29
ATOM     25  C   UNL     1      -1.123   2.594   0.126  0.00  0.00    +0.000 C 
ATOM     26  C   UNL     1      -2.187   2.985   0.845  0.00  0.00    +0.000 C 
ATOM     27  O   UNL     1      -2.608   4.310   0.417  0.00  0.00    +0.000 OA
ATOM     28  C   UNL     1      -1.376   4.972  -0.231  0.00  0.00    +0.000 C 
ATOM     29  C   UNL     1      -0.813   6.011   0.716  0.00  0.00    +0.000 C 
ATOM     30  C   UNL     1      -0.011   5.353   1.598  0.00  0.00    +0.000 C 
ATOM     31  O   UNL     1       0.595   4.199   0.951  0.00  0.00    +0.000 OA
ATOM     32  C   UNL     1      -0.321   3.830  -0.231  0.00  0.00    +0.000 C 
BRANCH  25  33
ATOM     33  O   UNL     1      -1.596   1.947  -1.046  0.00  0.00    +0.000 OA
BRANCH  33  34
ATOM     34  C   UNL     1      -1.123   0.609  -1.072  0.00  0.00    +0.000 C 
BRANCH  34  36
ATOM     35  C   UNL     1       1.078   0.000  -0.063  0.00  0.00    +0.000 C 
ATOM     36  C   UNL     1       0.398   0.609  -1.072  0.00  0.00    +0.000 C 
ENDBRANCH  34  36
ENDBRANCH  33  34
ENDBRANCH  25  33
ENDBRANCH  24  29
ENDBRANCH   1  24
TORSDOF 7
