REMARK  Name = 
REMARK  6 active torsions:
REMARK  status: ('A' for Active; 'I' for Inactive)
REMARK    1  A    between atoms: C_2  and  O_3
REMARK    2  A    between atoms: C_2  and  C_4
REMARK    3  A    between atoms: C_11  and  C_12
REMARK    4  A    between atoms: C_15  and  C_16
REMARK    5  A    between atoms: C_16  and  C_17
REMARK    6  A    between atoms: C_17  and  O_18
REMARK                            x       y       z     vdW  Elec       q    Type
REMARK                         _______ _______ _______ _____ _____    ______ ____
ROOT
ATOM      1  C   UNL     1       2.958  -0.878   0.891  0.00  0.00    +0.000 A 
ATOM      2  C   UNL     1       3.895  -0.577   1.742  0.00  0.00    +0.000 A 
ATOM      3  N   UNL     1       4.207  -1.688   2.531  0.00  0.00    +0.000 N 
ATOM      4  C   UNL     1       3.412  -2.748   2.145  0.00  0.00    +0.000 A 
ATOM      5  C   UNL     1       3.296  -4.065   2.574  0.00  0.00    +0.000 A 
ATOM      6  C   UNL     1       2.381  -4.904   1.978  0.00  0.00    +0.000 A 
ATOM      7  F   UNL     1       2.265  -6.160   2.399  0.00  0.00    +0.000 F 
ATOM      8  C   UNL     1       1.573  -4.446   0.936  0.00  0.00    +0.000 A 
ATOM      9  C   UNL     1       1.674  -3.141   0.498  0.00  0.00    +0.000 A 
ATOM     10  F   UNL     1       0.899  -2.705  -0.491  0.00  0.00    +0.000 F 
ATOM     11  C   UNL     1       2.597  -2.280   1.100  0.00  0.00    +0.000 A 
ATOM     12  H   UNL     1       4.907  -1.711   3.272  0.00  0.00    +0.000 HD
ENDROOT
BRANCH   8  13
ATOM     13  C   UNL     1       0.577  -5.389   0.281  0.00  0.00    +0.000 A 
ATOM     14  C   UNL     1       0.677  -5.584  -1.082  0.00  0.00    +0.000 A 
ATOM     15  C   UNL     1      -0.194  -6.349  -1.722  0.00  0.00    +0.000 A 
ATOM     16  C   UNL     1      -1.181  -6.957  -1.085  0.00  0.00    +0.000 A 
ATOM     17  C   UNL     1      -1.341  -6.806   0.279  0.00  0.00    +0.000 A 
ATOM     18  C   UNL     1      -0.451  -6.006   0.980  0.00  0.00    +0.000 A 
BRANCH  16  19
ATOM     19  C   UNL     1      -2.151  -7.830  -1.863  0.00  0.00    +0.000 C 
ATOM     20  C   UNL     1      -3.124  -8.845  -1.258  0.00  0.00    +0.000 C 
ATOM     21  C   UNL     1      -3.660  -7.585  -1.943  0.00  0.00    +0.000 C 
BRANCH  19  22
ATOM     22  C   UNL     1      -1.007  -7.915  -2.860  0.00  0.00    +0.000 C 
BRANCH  22  23
ATOM     23  O   UNL     1      -0.684  -6.611  -3.322  0.00  0.00    +0.000 OA
ATOM     24  H   UNL     1      -1.484  -6.208  -3.766  0.00  0.00    +0.000 HD
ENDBRANCH  22  23
ENDBRANCH  19  22
ENDBRANCH  16  19
ENDBRANCH   8  13
BRANCH   1  26
ATOM     25  O   UNL     1       0.928   0.029  -0.063  0.00  0.00    +0.000 OA
ATOM     26  C   UNL     1       2.199   0.029  -0.063  0.00  0.00    +0.000 C 
BRANCH  26  27
ATOM     27  O   UNL     1       2.909   0.876  -0.954  0.00  0.00    +0.000 OA
ATOM     28  H   UNL     1       3.909   0.876  -0.954  0.00  0.00    +0.000 HD
ENDBRANCH  26  27
ENDBRANCH   1  26
TORSDOF 6
