REMARK  Name = 
REMARK  12 active torsions:
REMARK  status: ('A' for Active; 'I' for Inactive)
REMARK    1  A    between atoms: C_1  and  O_2
REMARK    2  A    between atoms: O_2  and  C_3
REMARK    3  A    between atoms: C_3  and  C_4
REMARK    4  A    between atoms: C_4  and  C_5
REMARK    5  A    between atoms: C_5  and  C_6
REMARK    6  A    between atoms: C_5  and  N_9
REMARK    7  A    between atoms: N_9  and  C_10
REMARK    8  A    between atoms: N_9  and  C_11
REMARK    9  A    between atoms: C_11  and  C_12
REMARK   10  A    between atoms: N_16  and  C_17
REMARK   11  A    between atoms: C_30  and  O_31
REMARK   12  A    between atoms: O_31  and  C_32
REMARK                            x       y       z     vdW  Elec       q    Type
REMARK                         _______ _______ _______ _____ _____    ______ ____
ROOT
ATOM      1  C   UNL     1       2.572  -1.459   4.487  0.00  0.00    +0.000 A 
ATOM      2  C   UNL     1       3.251  -2.644   4.486  0.00  0.00    +0.000 A 
ATOM      3  C   UNL     1       4.664  -2.646   4.500  0.00  0.00    +0.000 A 
ATOM      4  C   UNL     1       5.459  -3.827   4.501  0.00  0.00    +0.000 A 
ATOM      5  N   UNL     1       4.793  -5.136   4.451  0.00  0.00    +0.000 N 
ATOM      6  N   UNL     1       6.769  -3.780   4.545  0.00  0.00    +0.000 NA
ATOM      7  C   UNL     1       7.351  -2.541   4.566  0.00  0.00    +0.000 A 
ATOM      8  N   UNL     1       6.741  -1.388   4.546  0.00  0.00    +0.000 NA
ATOM      9  C   UNL     1       5.370  -1.422   4.515  0.00  0.00    +0.000 A 
ATOM     10  C   UNL     1       4.639  -0.213   4.488  0.00  0.00    +0.000 A 
ATOM     11  C   UNL     1       3.272  -0.237   4.488  0.00  0.00    +0.000 A 
ATOM     12  H   UNL     1       3.775  -5.190   4.417  0.00  0.00    +0.000 HD
ENDROOT
BRANCH   5  13
ATOM     13  C   UNL     1       5.595  -6.369   4.451  0.00  0.00    +0.000 A 
ATOM     14  C   UNL     1       5.513  -7.258   3.400  0.00  0.00    +0.000 A 
ATOM     15  C   UNL     1       6.267  -8.425   3.386  0.00  0.00    +0.000 A 
ATOM     16  C   UNL     1       7.118  -8.692   4.457  0.00  0.00    +0.000 A 
ATOM     17  C   UNL     1       7.199  -7.800   5.509  0.00  0.00    +0.000 A 
ATOM     18 CL   UNL     1       8.283  -8.101   6.824  0.00  0.00    +0.000 Cl
ATOM     19  C   UNL     1       6.436  -6.654   5.496  0.00  0.00    +0.000 A 
ATOM     20  F   UNL     1       6.538  -5.779   6.517  0.00  0.00    +0.000 F 
ENDBRANCH   5  13
BRANCH  11  21
ATOM     21  O   UNL     1       2.549   0.985   4.490  0.00  0.00    +0.000 OA
ATOM     22  C   UNL     1       1.129   0.971   4.490  0.00  0.00    +0.000 C 
ENDBRANCH  11  21
BRANCH   1  23
ATOM     23  C   UNL     1       1.052  -1.459   4.487  0.00  0.00    +0.000 C 
BRANCH  23  24
ATOM     24  N   UNL     1       0.562  -1.789   3.141  0.00  0.00    +0.000 NA
ATOM     25  C   UNL     1       1.052  -3.120   2.754  0.00  0.00    +0.000 C 
BRANCH  24  26
ATOM     26  C   UNL     1       1.052  -0.788   2.182  0.00  0.00    +0.000 C 
BRANCH  26  27
ATOM     27  C   UNL     1       2.572  -0.788   2.182  0.00  0.00    +0.000 C 
ATOM     28  N   UNL     1       3.307  -1.708   3.063  0.00  0.00    +0.000 N 
ATOM     29  O   UNL     1       3.208   0.006   1.421  0.00  0.00    +0.000 OA
ATOM     30  H   UNL     1       4.327  -1.708   3.063  0.00  0.00    +0.000 HD
ATOM     31  H   UNL     1       2.797  -2.345   3.674  0.00  0.00    +0.000 HD
ENDBRANCH  26  27
BRANCH  26  32
ATOM     32  C   UNL     1       0.545   0.588   2.582  0.00  0.00    +0.000 C 
BRANCH  32  33
ATOM     33  C   UNL     1       1.052   1.622   1.591  0.00  0.00    +0.000 C 
BRANCH  33  35
ATOM     34  C   UNL     1       1.052   0.018  -0.084  0.00  0.00    +0.000 C 
ATOM     35  O   UNL     1       0.579   1.303   0.290  0.00  0.00    +0.000 OA
ENDBRANCH  33  35
ENDBRANCH  32  33
ENDBRANCH  26  32
ENDBRANCH  24  26
ENDBRANCH  23  24
ENDBRANCH   1  23
TORSDOF 9
