REMARK  Name = 
REMARK  8 active torsions:
REMARK  status: ('A' for Active; 'I' for Inactive)
REMARK    1  A    between atoms: C_1  and  C_2
REMARK    2  A    between atoms: C_2  and  C_3
REMARK    3  A    between atoms: N_9  and  C_10
REMARK    4  A    between atoms: C_13  and  C_14
REMARK    5  A    between atoms: C_21  and  N_22
REMARK    6  A    between atoms: N_25  and  C_26
REMARK    7  A    between atoms: C_26  and  C_27
REMARK    8  A    between atoms: C_31  and  C_32
REMARK                            x       y       z     vdW  Elec       q    Type
REMARK                         _______ _______ _______ _____ _____    ______ ____
ROOT
ATOM      1  C   UNL     1       1.358   5.662  -2.123  0.00  0.00    +0.000 A 
ATOM      2  C   UNL     1       2.282   6.252  -1.300  0.00  0.00    +0.000 A 
ATOM      3  N   UNL     1       1.736   7.177  -0.426  0.00  0.00    +0.000 NA
ATOM      4  C   UNL     1       0.444   7.276  -0.550  0.00  0.00    +0.000 A 
ATOM      5  N   UNL     1      -0.368   8.174   0.284  0.00  0.00    +0.000 N 
ATOM      6  C   UNL     1      -1.824   8.239   0.093  0.00  0.00    +0.000 A 
ATOM      7  C   UNL     1      -2.599   7.103   0.261  0.00  0.00    +0.000 A 
ATOM      8  C   UNL     1      -3.973   7.192   0.093  0.00  0.00    +0.000 A 
ATOM      9  N   UNL     1      -4.551   8.353  -0.275  0.00  0.00    +0.000 NA
ATOM     10  C   UNL     1      -3.726   9.392  -0.423  0.00  0.00    +0.000 A 
ATOM     11  C   UNL     1      -4.346  10.691  -0.840  0.00  0.00    +0.000 C 
ATOM     12  N   UNL     1      -2.410   9.399  -0.245  0.00  0.00    +0.000 NA
ATOM     13  S   UNL     1      -0.242   6.266  -1.776  0.00  0.00    +0.000 S 
ATOM     14  H   UNL     1       0.079   8.752   0.996  0.00  0.00    +0.000 HD
ENDROOT
BRANCH   1  18
ATOM     15  C   UNL     1       2.008   3.027  -5.421  0.00  0.00    +0.000 A 
ATOM     16  C   UNL     1       1.244   4.166  -5.620  0.00  0.00    +0.000 A 
ATOM     17  C   UNL     1       1.274   5.073  -4.534  0.00  0.00    +0.000 A 
ATOM     18  C   UNL     1       1.663   4.764  -3.310  0.00  0.00    +0.000 A 
ATOM     19  C   UNL     1       2.354   3.593  -3.169  0.00  0.00    +0.000 A 
ATOM     20  C   UNL     1       2.480   2.716  -4.219  0.00  0.00    +0.000 A 
BRANCH  15  27
ATOM     21  C   UNL     1       0.972   1.321  -2.117  0.00  0.00    +0.000 A 
ATOM     22  C   UNL     1       1.300   0.269  -2.912  0.00  0.00    +0.000 A 
ATOM     23  C   UNL     1       1.681   0.858  -4.128  0.00  0.00    +0.000 A 
ATOM     24  N   UNL     1       2.115   0.092  -5.305  0.00  0.00    +0.000 N 
ATOM     25  C   UNL     1       2.496   0.793  -6.540  0.00  0.00    +0.000 C 
ATOM     26  O   UNL     1       2.872   0.130  -7.557  0.00  0.00    +0.000 OA
ATOM     27  N   UNL     1       2.443   2.261  -6.597  0.00  0.00    +0.000 N 
ATOM     28  N   UNL     1       1.606   2.171  -4.100  0.00  0.00    +0.000 NA
ATOM     29  O   UNL     1       1.157   2.479  -2.801  0.00  0.00    +0.000 OA
ATOM     30  H   UNL     1       2.153  -0.927  -5.265  0.00  0.00    +0.000 HD
ATOM     31  H   UNL     1       2.707   2.748  -7.454  0.00  0.00    +0.000 HD
BRANCH  21  33
ATOM     32  C   UNL     1       0.972  -0.072  -0.063  0.00  0.00    +0.000 C 
ATOM     33  C   UNL     1       0.466   1.217  -0.688  0.00  0.00    +0.000 C 
ENDBRANCH  21  33
ENDBRANCH  15  27
ENDBRANCH   1  18
BRANCH   8  34
ATOM     34  N   UNL     1      -4.809   6.005   0.320  0.00  0.00    +0.000 N 
ATOM     35  C   UNL     1      -4.816   5.049   1.434  0.00  0.00    +0.000 C 
ATOM     36  C   UNL     1      -6.225   4.784   1.929  0.00  0.00    +0.000 C 
ATOM     37  N   UNL     1      -7.051   4.246   0.841  0.00  0.00    +0.000 NA
ATOM     38  C   UNL     1      -7.044   5.201  -0.273  0.00  0.00    +0.000 C 
ATOM     39  C   UNL     1      -5.636   5.467  -0.768  0.00  0.00    +0.000 C 
BRANCH  37  40
ATOM     40  C   UNL     1      -6.501   2.959   0.392  0.00  0.00    +0.000 C 
ATOM     41  C   UNL     1      -5.080   3.162  -0.107  0.00  0.00    +0.000 C 
ENDBRANCH  37  40
ENDBRANCH   8  34
TORSDOF 5
