
 OpenBabel03132514253D

 36 39  0  0  0  0  0  0  0  0999 V2000
    0.9389   -0.0344    0.0713 F   0  0  0  0  0  0  0  0  0  0  0  0
    2.2689   -0.0344    0.0713 C   0  0  0  0  0  0  0  0  0  0  0  0
    2.7122    0.2936   -1.1390 F   0  0  0  0  0  0  0  0  0  0  0  0
    2.7122    0.8498    0.9605 F   0  0  0  0  0  0  0  0  0  0  0  0
    2.7755   -1.4197    0.4383 C   0  0  0  0  0  0  0  0  0  0  0  0
    2.2855   -1.7821    1.7759 N   0  0  0  0  0  0  0  0  0  0  0  0
    1.4404   -2.9720    1.9516 C   0  0  0  0  0  0  0  0  0  0  0  0
    1.7646   -4.1647    1.3361 N   0  0  0  0  0  0  0  0  0  0  0  0
    0.9507   -5.2857    1.5005 C   0  0  0  0  0  0  0  0  0  0  0  0
    1.3007   -6.5457    0.8290 N   0  0  0  0  0  0  0  0  0  0  0  0
    0.4472   -7.7305    0.9983 C   0  0  0  0  0  0  0  0  0  0  0  0
   -0.8881   -7.6713    0.5989 C   0  0  0  0  0  0  0  0  0  0  0  0
   -1.7055   -8.7759    0.7341 C   0  0  0  0  0  0  0  0  0  0  0  0
   -1.1896   -9.9547    1.2809 C   0  0  0  0  0  0  0  0  0  0  0  0
   -1.7561  -11.2730    1.5616 C   0  0  0  0  0  0  0  0  0  0  0  0
   -0.8175  -12.0091    2.0807 N   0  0  0  0  0  0  0  0  0  0  0  0
    0.3706  -11.2786    2.1776 N   0  0  0  0  0  0  0  0  0  0  0  0
    0.1554  -10.0068    1.6872 C   0  0  0  0  0  0  0  0  0  0  0  0
    0.9637   -8.8850    1.5425 C   0  0  0  0  0  0  0  0  0  0  0  0
   -0.1778   -5.2213    2.2866 N   0  0  0  0  0  0  0  0  0  0  0  0
   -0.5194   -4.0292    2.9150 C   0  0  0  0  0  0  0  0  0  0  0  0
   -1.5595   -3.6515    3.7395 C   0  0  0  0  0  0  0  0  0  0  0  0
   -1.4003   -2.3056    4.0829 C   0  0  0  0  0  0  0  0  0  0  0  0
   -0.3287   -1.8236    3.5246 O   0  0  0  0  0  0  0  0  0  0  0  0
    0.2939   -2.8945    2.7481 C   0  0  0  0  0  0  0  0  0  0  0  0
    2.4189   -2.1310   -0.2771 H   0  0  0  0  0  0  0  0  0  0  0  0
    3.8455   -1.4197    0.4383 H   0  0  0  0  0  0  0  0  0  0  0  0
    2.5319   -1.2080    2.5822 H   0  0  0  0  0  0  0  0  0  0  0  0
    2.1358   -6.5979    0.2457 H   0  0  0  0  0  0  0  0  0  0  0  0
   -1.2808   -6.7657    0.1858 H   0  0  0  0  0  0  0  0  0  0  0  0
   -2.7280   -8.7300    0.4222 H   0  0  0  0  0  0  0  0  0  0  0  0
   -2.7642  -11.5782    1.3734 H   0  0  0  0  0  0  0  0  0  0  0  0
    1.2532  -11.6288    2.5502 H   0  0  0  0  0  0  0  0  0  0  0  0
    1.9868   -8.9187    1.8539 H   0  0  0  0  0  0  0  0  0  0  0  0
   -2.3582   -4.2856    4.0633 H   0  0  0  0  0  0  0  0  0  0  0  0
   -2.0639   -1.7520    4.7138 H   0  0  0  0  0  0  0  0  0  0  0  0
  1  2  1  0  0  0  0
  2  3  1  0  0  0  0
  2  4  1  0  0  0  0
  2  5  1  0  0  0  0
  5  6  1  0  0  0  0
  5 26  1  0  0  0  0
  5 27  1  0  0  0  0
  6  7  1  0  0  0  0
  6 28  1  0  0  0  0
  7  8  1  0  0  0  0
  7 25  2  0  0  0  0
  8  9  2  0  0  0  0
  9 10  1  0  0  0  0
  9 20  1  0  0  0  0
 10 11  1  0  0  0  0
 10 29  1  0  0  0  0
 11 12  1  0  0  0  0
 11 19  2  0  0  0  0
 12 13  2  0  0  0  0
 12 30  1  0  0  0  0
 13 14  1  0  0  0  0
 13 31  1  0  0  0  0
 14 15  1  0  0  0  0
 14 18  2  0  0  0  0
 15 16  2  0  0  0  0
 15 32  1  0  0  0  0
 16 17  1  0  0  0  0
 17 18  1  0  0  0  0
 17 33  1  0  0  0  0
 18 19  1  0  0  0  0
 19 34  1  0  0  0  0
 20 21  2  0  0  0  0
 21 22  1  0  0  0  0
 21 25  1  0  0  0  0
 22 23  2  0  0  0  0
 22 35  1  0  0  0  0
 23 24  1  0  0  0  0
 23 36  1  0  0  0  0
 24 25  1  0  0  0  0
M  END
