REMARK  Name = 
REMARK  10 active torsions:
REMARK  status: ('A' for Active; 'I' for Inactive)
REMARK    1  A    between atoms: C_2  and  O_3
REMARK    2  A    between atoms: C_2  and  C_4
REMARK    3  A    between atoms: C_4  and  C_5
REMARK    4  A    between atoms: C_5  and  C_6
REMARK    5  A    between atoms: C_6  and  C_7
REMARK    6  A    between atoms: C_10  and  C_11
REMARK    7  A    between atoms: C_14  and  C_15
REMARK    8  A    between atoms: C_19  and  O_20
REMARK    9  A    between atoms: O_20  and  C_21
REMARK   10  A    between atoms: C_25  and  O_26
REMARK                            x       y       z     vdW  Elec       q    Type
REMARK                         _______ _______ _______ _____ _____    ______ ____
ROOT
ATOM      1  C   UNL     1      -0.924   3.174  10.054  0.00  0.00    +0.000 A 
ATOM      2  N   UNL     1      -2.154   2.699  10.466  0.00  0.00    +0.000 NA
ATOM      3  C   UNL     1      -2.488   2.731  11.823  0.00  0.00    +0.000 A 
ATOM      4  N   UNL     1      -3.668   2.324  12.585  0.00  0.00    +0.000 NA
ATOM      5  C   UNL     1      -3.442   2.582  13.839  0.00  0.00    +0.000 A 
ATOM      6  N   UNL     1      -2.172   3.147  13.995  0.00  0.00    +0.000 N 
ATOM      7  C   UNL     1      -1.571   3.245  12.757  0.00  0.00    +0.000 A 
ATOM      8  C   UNL     1      -0.338   3.718  12.324  0.00  0.00    +0.000 A 
ATOM      9  C   UNL     1      -0.016   3.677  10.986  0.00  0.00    +0.000 A 
ATOM     10 CL   UNL     1       1.571   4.271  10.441  0.00  0.00    +0.000 Cl
ATOM     11  H   UNL     1      -1.758   3.438  14.880  0.00  0.00    +0.000 HD
ENDROOT
BRANCH   1  15
ATOM     12  C   UNL     1      -0.035   2.909   5.885  0.00  0.00    +0.000 A 
ATOM     13  C   UNL     1      -1.183   3.576   6.279  0.00  0.00    +0.000 A 
ATOM     14  C   UNL     1      -1.269   3.795   7.674  0.00  0.00    +0.000 A 
ATOM     15  C   UNL     1      -0.558   3.147   8.579  0.00  0.00    +0.000 A 
ATOM     16  C   UNL     1       0.524   2.451   8.118  0.00  0.00    +0.000 A 
ATOM     17  C   UNL     1       0.748   2.303   6.770  0.00  0.00    +0.000 A 
BRANCH  12  21
ATOM     18  C   UNL     1       0.779   2.814   1.693  0.00  0.00    +0.000 A 
ATOM     19  C   UNL     1       0.606   4.043   2.310  0.00  0.00    +0.000 A 
ATOM     20  C   UNL     1       0.562   3.974   3.722  0.00  0.00    +0.000 A 
ATOM     21  C   UNL     1       0.337   2.871   4.412  0.00  0.00    +0.000 A 
ATOM     22  C   UNL     1       0.457   1.692   3.729  0.00  0.00    +0.000 A 
ATOM     23  C   UNL     1       0.632   1.679   2.366  0.00  0.00    +0.000 A 
BRANCH  18  24
ATOM     24  C   UNL     1       1.146   2.765   0.219  0.00  0.00    +0.000 C 
BRANCH  24  25
ATOM     25  C   UNL     1       2.641   2.526   0.077  0.00  0.00    +0.000 C 
BRANCH  25  26
ATOM     26  C   UNL     1       3.008   1.206   0.735  0.00  0.00    +0.000 C 
BRANCH  26  28
ATOM     27  O   UNL     1       0.977   0.075   0.061  0.00  0.00    +0.000 OA
ATOM     28  C   UNL     1       2.248   0.075   0.061  0.00  0.00    +0.000 C 
BRANCH  28  29
ATOM     29  O   UNL     1       2.958  -0.981  -0.568  0.00  0.00    +0.000 OA
ATOM     30  H   UNL     1       3.958  -0.981  -0.568  0.00  0.00    +0.000 HD
ENDBRANCH  28  29
ENDBRANCH  26  28
ENDBRANCH  25  26
ENDBRANCH  24  25
ENDBRANCH  18  24
ENDBRANCH  12  21
ENDBRANCH   1  15
BRANCH   5  31
ATOM     31  O   UNL     1      -4.354   2.328  14.898  0.00  0.00    +0.000 OA
BRANCH  31  32
ATOM     32  C   UNL     1      -5.620   1.749  14.621  0.00  0.00    +0.000 C 
ATOM     33  C   UNL     1      -5.460   0.546  14.046  0.00  0.00    +0.000 C 
ATOM     34  O   UNL     1      -5.498   0.687  12.598  0.00  0.00    +0.000 OA
ATOM     35  C   UNL     1      -6.272   1.987  12.305  0.00  0.00    +0.000 C 
ATOM     36  C   UNL     1      -7.657   1.639  11.800  0.00  0.00    +0.000 C 
ATOM     37  C   UNL     1      -8.433   1.408  12.895  0.00  0.00    +0.000 C 
ATOM     38  O   UNL     1      -7.984   2.235  14.005  0.00  0.00    +0.000 OA
ATOM     39  C   UNL     1      -6.511   2.583  13.721  0.00  0.00    +0.000 C 
BRANCH  36  40
ATOM     40  O   UNL     1      -7.617   0.496  10.957  0.00  0.00    +0.000 OA
ATOM     41  H   UNL     1      -7.247  -0.281  11.466  0.00  0.00    +0.000 HD
ENDBRANCH  36  40
ENDBRANCH  31  32
ENDBRANCH   5  31
TORSDOF 10
