REMARK  Name = 
REMARK  9 active torsions:
REMARK  status: ('A' for Active; 'I' for Inactive)
REMARK    1  A    between atoms: C_1  and  N_2
REMARK    2  A    between atoms: N_5  and  C_6
REMARK    3  A    between atoms: C_6  and  C_7
REMARK    4  A    between atoms: C_7  and  C_8
REMARK    5  A    between atoms: C_8  and  O_9
REMARK    6  A    between atoms: O_9  and  C_10
REMARK    7  A    between atoms: C_13  and  C_14
REMARK    8  A    between atoms: C_17  and  C_18
REMARK    9  A    between atoms: C_18  and  O_20
REMARK                            x       y       z     vdW  Elec       q    Type
REMARK                         _______ _______ _______ _____ _____    ______ ____
ROOT
ATOM      1  C   UNL     1       0.010  -2.898  -4.502  0.00  0.00    +0.000 A 
ATOM      2  C   UNL     1       0.935  -2.726  -5.519  0.00  0.00    +0.000 A 
ATOM      3  C   UNL     1       1.365  -3.936  -6.113  0.00  0.00    +0.000 A 
ATOM      4  C   UNL     1       1.222  -5.130  -5.568  0.00  0.00    +0.000 A 
ATOM      5  C   UNL     1       0.344  -5.221  -4.523  0.00  0.00    +0.000 A 
ATOM      6  C   UNL     1      -0.218  -4.094  -3.973  0.00  0.00    +0.000 A 
ENDROOT
BRANCH   4   7
ATOM      7  C   UNL     1       1.991  -6.340  -6.074  0.00  0.00    +0.000 A 
ATOM      8  C   UNL     1       3.371  -6.271  -5.987  0.00  0.00    +0.000 A 
ATOM      9  C   UNL     1       4.042  -7.296  -6.697  0.00  0.00    +0.000 A 
ATOM     10  C   UNL     1       5.437  -7.101  -6.995  0.00  0.00    +0.000 A 
ATOM     11  C   UNL     1       6.167  -8.113  -7.715  0.00  0.00    +0.000 A 
ATOM     12  N   UNL     1       4.233  -9.514  -7.513  0.00  0.00    +0.000 N 
ATOM     13  C   UNL     1       3.477  -8.418  -7.104  0.00  0.00    +0.000 A 
ATOM     14  C   UNL     1       2.110  -8.446  -7.102  0.00  0.00    +0.000 A 
ATOM     15  C   UNL     1       1.383  -7.422  -6.545  0.00  0.00    +0.000 A 
ATOM     16 CL   UNL     1      -0.390  -7.548  -6.453  0.00  0.00    +0.000 Cl
ATOM     17  H   UNL     1       3.768 -10.367  -7.822  0.00  0.00    +0.000 HD
BRANCH  10  18
ATOM     18  C   UNL     1       6.139  -5.829  -6.551  0.00  0.00    +0.000 C 
ATOM     19  O   UNL     1       7.371  -5.657  -6.814  0.00  0.00    +0.000 OA
BRANCH  18  20
ATOM     20  O   UNL     1       5.419  -4.831  -5.841  0.00  0.00    +0.000 OA
ATOM     21  H   UNL     1       5.881  -3.994  -5.549  0.00  0.00    +0.000 HD
ENDBRANCH  18  20
ENDBRANCH  10  18
ENDBRANCH   4   7
BRANCH   1  22
ATOM     22  O   UNL     1      -0.642  -1.723  -4.042  0.00  0.00    +0.000 OA
BRANCH  22  23
ATOM     23  C   UNL     1      -0.758  -1.475  -2.648  0.00  0.00    +0.000 C 
BRANCH  23  24
ATOM     24  C   UNL     1      -1.535  -2.607  -1.995  0.00  0.00    +0.000 C 
BRANCH  24  25
ATOM     25  C   UNL     1      -0.802  -3.920  -2.217  0.00  0.00    +0.000 C 
BRANCH  25  30
ATOM     26  C   UNL     1       1.022   0.095   0.022  0.00  0.00    +0.000 C 
ATOM     27  N   UNL     1       0.532  -1.131  -0.624  0.00  0.00    +0.000 N 
ATOM     28  C   UNL     1       0.652  -1.493  -2.106  0.00  0.00    +0.000 C 
ATOM     29  C   UNL     1       1.270  -2.776  -2.234  0.00  0.00    +0.000 C 
ATOM     30  N   UNL     1       0.539  -3.839  -1.621  0.00  0.00    +0.000 NA
ATOM     31  C   UNL     1       0.414  -3.571  -0.119  0.00  0.00    +0.000 C 
ATOM     32  C   UNL     1      -0.273  -2.219   0.095  0.00  0.00    +0.000 C 
ATOM     33  O   UNL     1      -1.338  -2.029   0.762  0.00  0.00    +0.000 OA
ENDBRANCH  25  30
ENDBRANCH  24  25
ENDBRANCH  23  24
ENDBRANCH  22  23
ENDBRANCH   1  22
TORSDOF 8
