REMARK  Name = 
REMARK  7 active torsions:
REMARK  status: ('A' for Active; 'I' for Inactive)
REMARK    1  A    between atoms: C_2  and  O_3
REMARK    2  A    between atoms: C_2  and  C_4
REMARK    3  A    between atoms: C_11  and  O_12
REMARK    4  A    between atoms: O_12  and  C_13
REMARK    5  A    between atoms: C_13  and  C_14
REMARK    6  A    between atoms: N_23  and  C_24
REMARK    7  A    between atoms: C_24  and  C_25
REMARK                            x       y       z     vdW  Elec       q    Type
REMARK                         _______ _______ _______ _____ _____    ______ ____
ROOT
ATOM      1  C   UNL     1       3.057   1.372  -0.047  0.00  0.00    +0.000 C 
ATOM      2  C   UNL     1       4.217   1.363   0.953  0.00  0.00    +0.000 C 
ATOM      3  C   UNL     1       5.153   2.542   0.656  0.00  0.00    +0.000 C 
ATOM      4  C   UNL     1       4.319   3.794   0.539  0.00  0.00    +0.000 A 
ATOM      5  C   UNL     1       2.979   3.807   0.365  0.00  0.00    +0.000 A 
ATOM      6  C   UNL     1       2.541   5.100   0.298  0.00  0.00    +0.000 A 
ATOM      7  C   UNL     1       1.291   5.627   0.129  0.00  0.00    +0.000 A 
ATOM      8  C   UNL     1       1.102   6.965   0.097  0.00  0.00    +0.000 A 
ATOM      9  C   UNL     1       2.189   7.838   0.235  0.00  0.00    +0.000 A 
ATOM     10  C   UNL     1       3.445   7.326   0.404  0.00  0.00    +0.000 A 
ATOM     11  C   UNL     1       3.621   5.939   0.436  0.00  0.00    +0.000 A 
ATOM     12  N   UNL     1       4.767   5.130   0.593  0.00  0.00    +0.000 N 
ATOM     13  C   UNL     1       2.132   2.559   0.258  0.00  0.00    +0.000 C 
ENDROOT
BRANCH   1  15
ATOM     14  O   UNL     1       1.026   0.061   0.075  0.00  0.00    +0.000 OA
ATOM     15  C   UNL     1       2.297   0.061   0.075  0.00  0.00    +0.000 C 
BRANCH  15  16
ATOM     16  O   UNL     1       3.007  -1.163   0.188  0.00  0.00    +0.000 OA
ATOM     17  H   UNL     1       4.007  -1.163   0.188  0.00  0.00    +0.000 HD
ENDBRANCH  15  16
ENDBRANCH   1  15
BRANCH   8  18
ATOM     18  O   UNL     1      -0.207   7.488  -0.079  0.00  0.00    +0.000 OA
BRANCH  18  19
ATOM     19  C   UNL     1      -0.410   8.893  -0.113  0.00  0.00    +0.000 C 
BRANCH  19  20
ATOM     20  C   UNL     1       0.058   9.506   1.197  0.00  0.00    +0.000 A 
ATOM     21  C   UNL     1      -0.344  10.840   1.483  0.00  0.00    +0.000 A 
ATOM     22  C   UNL     1       0.204  11.501   2.595  0.00  0.00    +0.000 A 
ATOM     23  C   UNL     1       0.850  10.826   3.500  0.00  0.00    +0.000 A 
ATOM     24  C   UNL     1       0.991   9.438   3.374  0.00  0.00    +0.000 A 
ATOM     25  C   UNL     1       0.716   8.817   2.131  0.00  0.00    +0.000 A 
ENDBRANCH  19  20
ENDBRANCH  18  19
ENDBRANCH   8  18
BRANCH  12  26
ATOM     26  C   UNL     1       6.152   5.588   0.776  0.00  0.00    +0.000 C 
BRANCH  26  27
ATOM     27  C   UNL     1       6.686   5.071   2.102  0.00  0.00    +0.000 A 
ATOM     28  C   UNL     1       6.771   3.680   2.389  0.00  0.00    +0.000 A 
ATOM     29  C   UNL     1       7.099   3.264   3.690  0.00  0.00    +0.000 A 
ATOM     30  C   UNL     1       7.583   4.117   4.544  0.00  0.00    +0.000 A 
ATOM     31  C   UNL     1       7.788   5.450   4.165  0.00  0.00    +0.000 A 
ATOM     32  C   UNL     1       7.189   5.941   2.980  0.00  0.00    +0.000 A 
ENDBRANCH  26  27
ENDBRANCH  12  26
TORSDOF 7
