REMARK  Name = 
REMARK  7 active torsions:
REMARK  status: ('A' for Active; 'I' for Inactive)
REMARK    1  A    between atoms: O_1  and  C_2
REMARK    2  A    between atoms: C_6  and  O_7
REMARK    3  A    between atoms: O_7  and  C_8
REMARK    4  A    between atoms: C_12  and  C_13
REMARK    5  A    between atoms: C_16  and  C_17
REMARK    6  A    between atoms: C_20  and  C_21
REMARK    7  A    between atoms: C_21  and  N_22
REMARK                            x       y       z     vdW  Elec       q    Type
REMARK                         _______ _______ _______ _____ _____    ______ ____
ROOT
ATOM      1  C   UNL     1       2.294  -4.578   2.341  0.00  0.00    +0.000 A 
ATOM      2  N   UNL     1       1.553  -4.286   3.369  0.00  0.00    +0.000 NA
ATOM      3  C   UNL     1       2.383  -3.564   4.332  0.00  0.00    +0.000 A 
ATOM      4  N   UNL     1       2.143  -3.008   5.592  0.00  0.00    +0.000 NA
ATOM      5  C   UNL     1       3.168  -2.373   6.265  0.00  0.00    +0.000 A 
ATOM      6  C   UNL     1       4.435  -2.279   5.689  0.00  0.00    +0.000 A 
ATOM      7 CL   UNL     1       5.742  -1.444   6.563  0.00  0.00    +0.000 Cl
ATOM      8  C   UNL     1       4.683  -2.827   4.451  0.00  0.00    +0.000 A 
ATOM      9  C   UNL     1       3.664  -3.471   3.759  0.00  0.00    +0.000 A 
ATOM     10  N   UNL     1       3.594  -4.100   2.533  0.00  0.00    +0.000 N 
ATOM     11  H   UNL     1       4.366  -4.199   1.873  0.00  0.00    +0.000 HD
ENDROOT
BRANCH   5  12
ATOM     12  C   UNL     1       2.914  -1.774   7.639  0.00  0.00    +0.000 A 
ATOM     13  C   UNL     1       2.624  -2.576   8.725  0.00  0.00    +0.000 A 
ATOM     14  C   UNL     1       2.529  -2.061   9.940  0.00  0.00    +0.000 A 
ATOM     15  C   UNL     1       2.712  -0.770  10.161  0.00  0.00    +0.000 A 
ATOM     16  C   UNL     1       3.005   0.091   9.121  0.00  0.00    +0.000 A 
ATOM     17  C   UNL     1       3.107  -0.414   7.834  0.00  0.00    +0.000 A 
BRANCH  15  18
ATOM     18  C   UNL     1       2.599  -0.227  11.577  0.00  0.00    +0.000 A 
ATOM     19  C   UNL     1       3.483  -0.630  12.556  0.00  0.00    +0.000 A 
ATOM     20  C   UNL     1       3.436  -0.104  13.770  0.00  0.00    +0.000 A 
ATOM     21  C   UNL     1       2.551   0.826  14.087  0.00  0.00    +0.000 A 
ATOM     22  C   UNL     1       1.635   1.278  13.156  0.00  0.00    +0.000 A 
ATOM     23  C   UNL     1       1.653   0.743  11.877  0.00  0.00    +0.000 A 
BRANCH  21  24
ATOM     24  C   UNL     1       2.541   1.405  15.493  0.00  0.00    +0.000 C 
BRANCH  24  25
ATOM     25  N   UNL     1       2.297   0.330  16.464  0.00  0.00    +0.000 N 
ATOM     26  C   UNL     1       3.091  -0.757  16.628  0.00  0.00    +0.000 A 
ATOM     27  C   UNL     1       2.625  -1.396  17.729  0.00  0.00    +0.000 A 
ATOM     28  N   UNL     1       1.607  -0.712  18.174  0.00  0.00    +0.000 NA
ATOM     29  C   UNL     1       1.409   0.311  17.420  0.00  0.00    +0.000 A 
ENDBRANCH  24  25
ENDBRANCH  21  24
ENDBRANCH  15  18
ENDBRANCH   5  12
BRANCH   1  30
ATOM     30  O   UNL     1       1.852  -5.147   1.118  0.00  0.00    +0.000 OA
BRANCH  30  35
ATOM     31  C   UNL     1       0.443  -1.041   0.751  0.00  0.00    +0.000 C 
ATOM     32  C   UNL     1       1.337  -1.455   1.664  0.00  0.00    +0.000 C 
ATOM     33  O   UNL     1       2.189  -2.482   1.084  0.00  0.00    +0.000 OA
ATOM     34  C   UNL     1       1.396  -3.100  -0.084  0.00  0.00    +0.000 C 
ATOM     35  C   UNL     1       0.890  -4.467   0.325  0.00  0.00    +0.000 C 
ATOM     36  C   UNL     1      -0.264  -4.272   1.021  0.00  0.00    +0.000 C 
ATOM     37  O   UNL     1      -0.952  -3.092   0.520  0.00  0.00    +0.000 OA
ATOM     38  C   UNL     1       0.120  -2.214  -0.153  0.00  0.00    +0.000 C 
BRANCH  31  39
ATOM     39  O   UNL     1       0.916   0.044  -0.032  0.00  0.00    +0.000 OA
ATOM     40  H   UNL     1       1.916   0.044  -0.032  0.00  0.00    +0.000 HD
ENDBRANCH  31  39
ENDBRANCH  30  35
ENDBRANCH   1  30
TORSDOF 7
