
 OpenBabel03132514253D

 50 54  0  0  0  0  0  0  0  0999 V2000
    1.3440   -0.2250    0.0360 C   0  0  0  0  0  0  0  0  0  0  0  0
    0.8920    1.0800   -0.0700 C   0  0  0  0  0  0  0  0  0  0  0  0
   -0.5090    1.2150    0.0750 C   0  0  0  0  0  0  0  0  0  0  0  0
   -1.3730    0.2230   -0.0410 C   0  0  0  0  0  0  0  0  0  0  0  0
   -2.8621    0.4740   -0.2141 C   0  0  0  0  0  0  0  0  0  0  0  0
   -3.6038   -0.1798    0.9570 C   0  0  0  0  0  0  0  0  0  0  0  0
   -3.3275   -1.6850    0.9487 C   0  0  0  0  0  0  0  0  0  0  0  0
   -3.7350   -2.2359   -0.3048 N   0  0  0  0  0  0  0  0  0  0  0  0
   -3.0442   -1.6971   -1.4329 C   0  0  0  0  0  0  0  0  0  0  0  0
   -1.6412   -1.9288   -1.2902 C   0  0  0  0  0  0  0  0  0  0  0  0
   -1.2848   -3.3077   -1.1785 C   0  0  0  0  0  0  0  0  0  0  0  0
   -1.7155   -4.0494   -2.4466 N   0  0  0  0  0  0  0  0  0  0  0  0
   -0.8236   -4.8118   -3.3322 C   0  0  0  0  0  0  0  0  0  0  0  0
   -0.7234   -4.4358   -4.6039 N   0  0  0  0  0  0  0  0  0  0  0  0
    0.1606   -5.0525   -5.3974 C   0  0  0  0  0  0  0  0  0  0  0  0
    0.9919   -6.0373   -5.1036 N   0  0  0  0  0  0  0  0  0  0  0  0
    0.8829   -6.4137   -3.8219 C   0  0  0  0  0  0  0  0  0  0  0  0
    1.6590   -7.3706   -3.2104 N   0  0  0  0  0  0  0  0  0  0  0  0
    1.2544   -7.3633   -1.9593 C   0  0  0  0  0  0  0  0  0  0  0  0
    0.2779   -6.4887   -1.7053 N   0  0  0  0  0  0  0  0  0  0  0  0
   -0.0041   -5.8485   -2.8945 C   0  0  0  0  0  0  0  0  0  0  0  0
   -3.2235   -3.8708   -2.6457 C   0  0  0  0  0  0  0  0  0  0  0  0
   -3.5463   -2.3746   -2.7103 C   0  0  0  0  0  0  0  0  0  0  0  0
   -3.3071   -0.1913   -1.5199 C   0  0  0  0  0  0  0  0  0  0  0  0
   -0.8560   -1.0420    0.0030 C   0  0  0  0  0  0  0  0  0  0  0  0
    0.5020   -1.2510   -0.0040 C   0  0  0  0  0  0  0  0  0  0  0  0
    2.3915   -0.4099    0.1523 H   0  0  0  0  0  0  0  0  0  0  0  0
    1.5432    1.9107   -0.2456 H   0  0  0  0  0  0  0  0  0  0  0  0
   -0.8953    2.1885    0.2939 H   0  0  0  0  0  0  0  0  0  0  0  0
   -3.0719    1.5229   -0.2401 H   0  0  0  0  0  0  0  0  0  0  0  0
   -3.2643    0.2434    1.8793 H   0  0  0  0  0  0  0  0  0  0  0  0
   -4.6550   -0.0081    0.8556 H   0  0  0  0  0  0  0  0  0  0  0  0
   -2.2811   -1.8568    1.0911 H   0  0  0  0  0  0  0  0  0  0  0  0
   -3.8760   -2.1528    1.7394 H   0  0  0  0  0  0  0  0  0  0  0  0
   -3.5715   -3.2424   -0.2803 H   0  0  0  0  0  0  0  0  0  0  0  0
   -1.1762   -1.5616   -2.1812 H   0  0  0  0  0  0  0  0  0  0  0  0
   -1.3053   -1.4227   -0.4092 H   0  0  0  0  0  0  0  0  0  0  0  0
   -1.7763   -3.7360   -0.3300 H   0  0  0  0  0  0  0  0  0  0  0  0
   -0.2251   -3.3937   -1.0573 H   0  0  0  0  0  0  0  0  0  0  0  0
    0.1997   -4.7004   -6.4071 H   0  0  0  0  0  0  0  0  0  0  0  0
    1.6714   -8.0029   -1.2097 H   0  0  0  0  0  0  0  0  0  0  0  0
   -0.1729   -6.3253   -0.8050 H   0  0  0  0  0  0  0  0  0  0  0  0
   -3.7506   -4.3186   -1.8294 H   0  0  0  0  0  0  0  0  0  0  0  0
   -3.5227   -4.3417   -3.5587 H   0  0  0  0  0  0  0  0  0  0  0  0
   -4.6038   -2.2380   -2.7984 H   0  0  0  0  0  0  0  0  0  0  0  0
   -3.0623   -1.9402   -3.5600 H   0  0  0  0  0  0  0  0  0  0  0  0
   -4.3515   -0.0171   -1.6744 H   0  0  0  0  0  0  0  0  0  0  0  0
   -2.7551    0.2217   -2.3382 H   0  0  0  0  0  0  0  0  0  0  0  0
   -1.5185   -1.8813    0.0435 H   0  0  0  0  0  0  0  0  0  0  0  0
    0.8845   -2.2496   -0.0420 H   0  0  0  0  0  0  0  0  0  0  0  0
  1  2  1  0  0  0  0
  1 26  2  0  0  0  0
  1 27  1  0  0  0  0
  2  3  2  0  0  0  0
  2 28  1  0  0  0  0
  3  4  1  0  0  0  0
  3 29  1  0  0  0  0
  4  5  1  0  0  0  0
  4 25  2  0  0  0  0
  5  6  1  0  0  0  0
  5 24  1  0  0  0  0
  5 30  1  0  0  0  0
  6  7  1  0  0  0  0
  6 31  1  0  0  0  0
  6 32  1  0  0  0  0
  7  8  1  0  0  0  0
  7 33  1  0  0  0  0
  7 34  1  0  0  0  0
  8  9  1  0  0  0  0
  8 35  1  0  0  0  0
  9 10  1  0  0  0  0
  9 23  1  0  0  0  0
  9 24  1  0  0  0  0
 10 11  1  0  0  0  0
 10 36  1  0  0  0  0
 10 37  1  0  0  0  0
 11 12  1  0  0  0  0
 11 38  1  0  0  0  0
 11 39  1  0  0  0  0
 12 13  1  0  0  0  0
 12 22  1  0  0  0  0
 13 14  1  0  0  0  0
 13 21  2  0  0  0  0
 14 15  2  0  0  0  0
 15 16  1  0  0  0  0
 15 40  1  0  0  0  0
 16 17  2  0  0  0  0
 17 18  1  0  0  0  0
 17 21  1  0  0  0  0
 18 19  2  0  0  0  0
 19 20  1  0  0  0  0
 19 41  1  0  0  0  0
 20 21  1  0  0  0  0
 20 42  1  0  0  0  0
 22 23  1  0  0  0  0
 22 43  1  0  0  0  0
 22 44  1  0  0  0  0
 23 45  1  0  0  0  0
 23 46  1  0  0  0  0
 24 47  1  0  0  0  0
 24 48  1  0  0  0  0
 25 26  1  0  0  0  0
 25 49  1  0  0  0  0
 26 50  1  0  0  0  0
M  END
