
 OpenBabel03132512093D

 60 64  0  0  0  0  0  0  0  0999 V2000
    1.0069   -0.0988   -0.0135 O   0  0  0  0  0  0  0  0  0  0  0  0
    2.2778   -0.0988   -0.0135 C   0  0  0  0  0  0  0  0  0  0  0  0
    3.0128    1.1438    0.2631 N   0  0  0  0  0  0  0  0  0  0  0  0
    4.4828    1.1438    0.2631 C   0  0  0  0  0  0  0  0  0  0  0  0
    4.9895    2.1129   -0.7926 C   0  0  0  0  0  0  0  0  0  0  0  0
    4.5161    3.4197   -0.5017 O   0  0  0  0  0  0  0  0  0  0  0  0
    4.9895    1.5735    1.6302 C   0  0  0  0  0  0  0  0  0  0  0  0
    5.3658    0.6186    2.5603 C   0  0  0  0  0  0  0  0  0  0  0  0
    5.4346    1.1062    3.8868 C   0  0  0  0  0  0  0  0  0  0  0  0
    5.5034    2.3843    4.2123 C   0  0  0  0  0  0  0  0  0  0  0  0
    5.1854    3.2801    3.2295 C   0  0  0  0  0  0  0  0  0  0  0  0
    4.9755    2.8655    1.9365 C   0  0  0  0  0  0  0  0  0  0  0  0
    3.0378   -1.3837   -0.2996 C   0  0  0  0  0  0  0  0  0  0  0  0
    4.1102   -1.7093    0.5144 C   0  0  0  0  0  0  0  0  0  0  0  0
    4.9206   -2.7515    0.0054 C   0  0  0  0  0  0  0  0  0  0  0  0
    4.5479   -3.5977   -0.9376 C   0  0  0  0  0  0  0  0  0  0  0  0
    5.2450   -4.7786   -1.1812 N   0  0  0  0  0  0  0  0  0  0  0  0
    4.8187   -5.6444   -2.1855 C   0  0  0  0  0  0  0  0  0  0  0  0
    3.6331   -5.3118   -2.9883 N   0  0  0  0  0  0  0  0  0  0  0  0
    3.1832   -6.2255   -4.0483 C   0  0  0  0  0  0  0  0  0  0  0  0
    1.7611   -5.7744   -4.3472 C   0  0  0  0  0  0  0  0  0  0  0  0
    0.8429   -5.9235   -3.1349 C   0  0  0  0  0  0  0  0  0  0  0  0
    0.8730   -7.3839   -2.6820 C   0  0  0  0  0  0  0  0  0  0  0  0
    0.1082   -7.6219   -1.4970 O   0  0  0  0  0  0  0  0  0  0  0  0
    2.2835   -7.8228   -2.3632 C   0  0  0  0  0  0  0  0  0  0  0  0
    3.2251   -7.6533   -3.5445 C   0  0  0  0  0  0  0  0  0  0  0  0
    5.5795   -6.9332   -2.4514 C   0  0  0  0  0  0  0  0  0  0  0  0
    6.0133   -7.7760   -1.5544 N   0  0  0  0  0  0  0  0  0  0  0  0
    6.6575   -8.7706   -2.2120 C   0  0  0  0  0  0  0  0  0  0  0  0
    6.5649   -8.4670   -3.5295 C   0  0  0  0  0  0  0  0  0  0  0  0
    5.9037   -7.3459   -3.6254 N   0  0  0  0  0  0  0  0  0  0  0  0
    3.4408   -3.2521   -1.6618 C   0  0  0  0  0  0  0  0  0  0  0  0
    2.6720   -2.1707   -1.3047 C   0  0  0  0  0  0  0  0  0  0  0  0
    2.5028    2.0060    0.4550 H   0  0  0  0  0  0  0  0  0  0  0  0
    4.8395    0.1591    0.0439 H   0  0  0  0  0  0  0  0  0  0  0  0
    6.0595    2.1129   -0.7926 H   0  0  0  0  0  0  0  0  0  0  0  0
    4.6328    1.8104   -1.7550 H   0  0  0  0  0  0  0  0  0  0  0  0
    3.5161    3.4197   -0.5017 H   0  0  0  0  0  0  0  0  0  0  0  0
    5.5845   -0.3958    2.2994 H   0  0  0  0  0  0  0  0  0  0  0  0
    5.4307    0.3897    4.6814 H   0  0  0  0  0  0  0  0  0  0  0  0
    5.7924    2.7016    5.1925 H   0  0  0  0  0  0  0  0  0  0  0  0
    5.0989    4.3189    3.4708 H   0  0  0  0  0  0  0  0  0  0  0  0
    4.7991    3.5903    1.1694 H   0  0  0  0  0  0  0  0  0  0  0  0
    4.3077   -1.2174    1.4439 H   0  0  0  0  0  0  0  0  0  0  0  0
    5.9039   -2.8617    0.4127 H   0  0  0  0  0  0  0  0  0  0  0  0
    3.1226   -4.4469   -2.8099 H   0  0  0  0  0  0  0  0  0  0  0  0
    3.7971   -6.2005   -4.9243 H   0  0  0  0  0  0  0  0  0  0  0  0
    1.3766   -6.3948   -5.1295 H   0  0  0  0  0  0  0  0  0  0  0  0
    1.7803   -4.7456   -4.6408 H   0  0  0  0  0  0  0  0  0  0  0  0
   -0.1558   -5.6397   -3.3936 H   0  0  0  0  0  0  0  0  0  0  0  0
    1.1862   -5.2923   -2.3420 H   0  0  0  0  0  0  0  0  0  0  0  0
    0.4556   -7.9325   -3.5004 H   0  0  0  0  0  0  0  0  0  0  0  0
    0.5031   -7.1067   -0.7363 H   0  0  0  0  0  0  0  0  0  0  0  0
    2.6448   -7.2055   -1.5674 H   0  0  0  0  0  0  0  0  0  0  0  0
    2.2669   -8.8552   -2.0827 H   0  0  0  0  0  0  0  0  0  0  0  0
    2.9182   -8.3097   -4.3318 H   0  0  0  0  0  0  0  0  0  0  0  0
    4.2225   -7.8904   -3.2380 H   0  0  0  0  0  0  0  0  0  0  0  0
    7.1405   -9.6217   -1.7794 H   0  0  0  0  0  0  0  0  0  0  0  0
    6.9609   -9.0406   -4.3414 H   0  0  0  0  0  0  0  0  0  0  0  0
    1.7705   -1.9608   -1.8413 H   0  0  0  0  0  0  0  0  0  0  0  0
  1  2  2  0  0  0  0
  2  3  1  0  0  0  0
  2 13  1  0  0  0  0
  3  4  1  0  0  0  0
  3 34  1  0  0  0  0
  4  5  1  0  0  0  0
  4  7  1  0  0  0  0
  4 35  1  0  0  0  0
  5  6  1  0  0  0  0
  5 36  1  0  0  0  0
  5 37  1  0  0  0  0
  6 38  1  0  0  0  0
  7  8  1  0  0  0  0
  7 12  2  0  0  0  0
  8  9  2  0  0  0  0
  8 39  1  0  0  0  0
  9 10  1  0  0  0  0
  9 40  1  0  0  0  0
 10 11  2  0  0  0  0
 10 41  1  0  0  0  0
 11 12  1  0  0  0  0
 11 42  1  0  0  0  0
 12 43  1  0  0  0  0
 13 14  1  0  0  0  0
 13 33  2  0  0  0  0
 14 15  2  0  0  0  0
 14 44  1  0  0  0  0
 15 16  1  0  0  0  0
 15 45  1  0  0  0  0
 16 17  1  0  0  0  0
 16 32  2  0  0  0  0
 17 18  2  0  0  0  0
 18 19  1  0  0  0  0
 18 27  1  0  0  0  0
 19 20  1  0  0  0  0
 19 46  1  0  0  0  0
 20 21  1  0  0  0  0
 20 26  1  0  0  0  0
 20 47  1  0  0  0  0
 21 22  1  0  0  0  0
 21 48  1  0  0  0  0
 21 49  1  0  0  0  0
 22 23  1  0  0  0  0
 22 50  1  0  0  0  0
 22 51  1  0  0  0  0
 23 24  1  0  0  0  0
 23 25  1  0  0  0  0
 23 52  1  0  0  0  0
 24 53  1  0  0  0  0
 25 26  1  0  0  0  0
 25 54  1  0  0  0  0
 25 55  1  0  0  0  0
 26 56  1  0  0  0  0
 26 57  1  0  0  0  0
 27 28  2  0  0  0  0
 27 31  1  0  0  0  0
 28 29  1  0  0  0  0
 29 30  2  0  0  0  0
 29 58  1  0  0  0  0
 30 31  1  0  0  0  0
 30 59  1  0  0  0  0
 31 32  1  0  0  0  0
 32 33  1  0  0  0  0
 33 60  1  0  0  0  0
M  END
