REMARK  Name = 
REMARK  13 active torsions:
REMARK  status: ('A' for Active; 'I' for Inactive)
REMARK    1  A    between atoms: C_1  and  C_2
REMARK    2  A    between atoms: C_2  and  N_3
REMARK    3  A    between atoms: N_3  and  C_4
REMARK    4  A    between atoms: N_3  and  C_6
REMARK    5  A    between atoms: C_4  and  C_5
REMARK    6  A    between atoms: C_6  and  C_7
REMARK    7  A    between atoms: C_7  and  N_8
REMARK    8  A    between atoms: C_9  and  C_11
REMARK    9  A    between atoms: C_12  and  C_13
REMARK   10  A    between atoms: C_15  and  C_16
REMARK   11  A    between atoms: C_26  and  C_27
REMARK   12  A    between atoms: C_31  and  C_32
REMARK   13  A    between atoms: C_34  and  C_35
REMARK                            x       y       z     vdW  Elec       q    Type
REMARK                         _______ _______ _______ _____ _____    ______ ____
ROOT
ATOM      1  C   UNL     1       4.976  -1.655  -2.107  0.00  0.00    +0.000 A 
ATOM      2  C   UNL     1       5.630  -2.805  -1.741  0.00  0.00    +0.000 A 
ATOM      3  C   UNL     1       5.125  -4.187  -1.509  0.00  0.00    +0.000 C 
ATOM      4  N   UNL     1       6.952  -2.500  -1.613  0.00  0.00    +0.000 N 
ATOM      5  C   UNL     1       7.171  -1.176  -1.911  0.00  0.00    +0.000 A 
ATOM      6  C   UNL     1       5.957  -0.616  -2.227  0.00  0.00    +0.000 A 
ATOM      7  C   UNL     1       5.686   0.822  -2.587  0.00  0.00    +0.000 C 
ATOM      8  H   UNL     1       7.678  -3.161  -1.335  0.00  0.00    +0.000 HD
ENDROOT
BRANCH   5   9
ATOM      9  C   UNL     1       8.512  -0.461  -1.894  0.00  0.00    +0.000 C 
ATOM     10  C   UNL     1       9.508  -0.881  -2.694  0.00  0.00    +0.000 C 
ATOM     11  C   UNL     1       9.302  -2.002  -3.659  0.00  0.00    +0.000 C 
ATOM     12  O   UNL     1       8.294  -2.693  -3.819  0.00  0.00    +0.000 OA
ATOM     13  N   UNL     1      10.448  -2.131  -4.371  0.00  0.00    +0.000 N 
ATOM     14  C   UNL     1      11.411  -1.204  -3.955  0.00  0.00    +0.000 A 
ATOM     15  C   UNL     1      10.883  -0.432  -2.919  0.00  0.00    +0.000 A 
ATOM     16  C   UNL     1      11.727   0.494  -2.321  0.00  0.00    +0.000 A 
ATOM     17  C   UNL     1      13.025   0.641  -2.793  0.00  0.00    +0.000 A 
ATOM     18  C   UNL     1      13.500  -0.102  -3.864  0.00  0.00    +0.000 A 
ATOM     19  C   UNL     1      12.684  -1.060  -4.455  0.00  0.00    +0.000 A 
ATOM     20  H   UNL     1      10.592  -2.815  -5.114  0.00  0.00    +0.000 HD
BRANCH  19  21
ATOM     21  C   UNL     1      13.179  -1.916  -5.609  0.00  0.00    +0.000 A 
ATOM     22  C   UNL     1      14.167  -2.853  -5.346  0.00  0.00    +0.000 A 
ATOM     23  N   UNL     1      14.597  -3.747  -6.230  0.00  0.00    +0.000 NA
ATOM     24  C   UNL     1      14.003  -3.725  -7.427  0.00  0.00    +0.000 A 
ATOM     25  C   UNL     1      12.991  -2.851  -7.791  0.00  0.00    +0.000 A 
ATOM     26  C   UNL     1      12.395  -2.907  -9.176  0.00  0.00    +0.000 C 
ATOM     27  C   UNL     1      12.590  -1.933  -6.856  0.00  0.00    +0.000 A 
ENDBRANCH  19  21
ENDBRANCH   5   9
BRANCH   1  29
ATOM     28  N   UNL     1       2.526  -2.098  -1.394  0.00  0.00    +0.000 N 
ATOM     29  C   UNL     1       3.482  -1.508  -2.342  0.00  0.00    +0.000 C 
ATOM     30  O   UNL     1       3.058  -0.875  -3.360  0.00  0.00    +0.000 OA
ATOM     31  H   UNL     1       1.524  -2.000  -1.552  0.00  0.00    +0.000 HD
BRANCH  28  32
ATOM     32  C   UNL     1       3.016  -2.831  -0.217  0.00  0.00    +0.000 C 
BRANCH  32  33
ATOM     33  C   UNL     1       2.510  -2.156   1.047  0.00  0.00    +0.000 C 
BRANCH  33  34
ATOM     34  N   UNL     1       1.040  -2.156   1.047  0.00  0.00    +0.000 NA
BRANCH  34  36
ATOM     35  C   UNL     1       1.056   0.009  -0.082  0.00  0.00    +0.000 C 
ATOM     36  C   UNL     1       0.550  -1.423  -0.130  0.00  0.00    +0.000 C 
ENDBRANCH  34  36
BRANCH  34  37
ATOM     37  C   UNL     1       0.550  -3.541   1.001  0.00  0.00    +0.000 C 
ATOM     38  C   UNL     1       1.056  -4.216  -0.263  0.00  0.00    +0.000 C 
ENDBRANCH  34  37
ENDBRANCH  33  34
ENDBRANCH  32  33
ENDBRANCH  28  32
ENDBRANCH   1  29
TORSDOF 8
