
 OpenBabel03132512083D

 56 60  0  0  0  0  0  0  0  0999 V2000
    0.9694    0.0160   -0.0938 O   0  0  0  0  0  0  0  0  0  0  0  0
    2.2403    0.0160   -0.0938 C   0  0  0  0  0  0  0  0  0  0  0  0
    2.9503    1.0711   -0.7255 O   0  0  0  0  0  0  0  0  0  0  0  0
    3.0003   -1.1135    0.5823 C   0  0  0  0  0  0  0  0  0  0  0  0
    2.0200   -2.2891    0.6287 C   0  0  0  0  0  0  0  0  0  0  0  0
    2.7586   -3.5480    1.0996 C   0  0  0  0  0  0  0  0  0  0  0  0
    3.5270   -3.2087    2.3524 C   0  0  0  0  0  0  0  0  0  0  0  0
    3.8020   -1.9508    2.7642 C   0  0  0  0  0  0  0  0  0  0  0  0
    4.5123   -1.9988    3.9313 C   0  0  0  0  0  0  0  0  0  0  0  0
    5.0193   -1.0084    4.7265 C   0  0  0  0  0  0  0  0  0  0  0  0
    5.6987   -1.3065    5.8553 C   0  0  0  0  0  0  0  0  0  0  0  0
    6.2143   -0.2607    6.6658 O   0  0  0  0  0  0  0  0  0  0  0  0
    6.9292   -0.5694    7.8533 C   0  0  0  0  0  0  0  0  0  0  0  0
    6.0316   -1.3553    8.7951 C   0  0  0  0  0  0  0  0  0  0  0  0
    6.3393   -2.7295    8.9979 C   0  0  0  0  0  0  0  0  0  0  0  0
    5.4255   -3.5463    9.6836 C   0  0  0  0  0  0  0  0  0  0  0  0
    4.4520   -3.0093   10.3586 C   0  0  0  0  0  0  0  0  0  0  0  0
    4.3193   -1.6154   10.4118 C   0  0  0  0  0  0  0  0  0  0  0  0
    5.0354   -0.8088    9.4942 C   0  0  0  0  0  0  0  0  0  0  0  0
    5.8977   -2.6422    6.2314 C   0  0  0  0  0  0  0  0  0  0  0  0
    5.3977   -3.6432    5.4467 C   0  0  0  0  0  0  0  0  0  0  0  0
    4.6956   -3.3152    4.2816 C   0  0  0  0  0  0  0  0  0  0  0  0
    4.0747   -4.1067    3.2914 N   0  0  0  0  0  0  0  0  0  0  0  0
    4.0118   -5.5747    3.2479 C   0  0  0  0  0  0  0  0  0  0  0  0
    2.5586   -6.0202    3.2646 C   0  0  0  0  0  0  0  0  0  0  0  0
    1.6635   -5.6160    2.2352 C   0  0  0  0  0  0  0  0  0  0  0  0
    0.2812   -5.7822    2.4197 C   0  0  0  0  0  0  0  0  0  0  0  0
   -0.1608   -6.5366    3.3826 C   0  0  0  0  0  0  0  0  0  0  0  0
   -1.4702   -6.6850    3.5625 F   0  0  0  0  0  0  0  0  0  0  0  0
    0.7409   -7.1931    4.2308 C   0  0  0  0  0  0  0  0  0  0  0  0
    2.1008   -6.7984    4.2468 C   0  0  0  0  0  0  0  0  0  0  0  0
    3.3768   -0.7089    2.0149 C   0  0  0  0  0  0  0  0  0  0  0  0
    3.9503    1.0711   -0.7255 H   0  0  0  0  0  0  0  0  0  0  0  0
    3.9024   -1.3543    0.0596 H   0  0  0  0  0  0  0  0  0  0  0  0
    1.6145   -2.4559   -0.3473 H   0  0  0  0  0  0  0  0  0  0  0  0
    1.2257   -2.0652    1.3098 H   0  0  0  0  0  0  0  0  0  0  0  0
    3.4289   -3.8876    0.3378 H   0  0  0  0  0  0  0  0  0  0  0  0
    2.0525   -4.3246    1.3079 H   0  0  0  0  0  0  0  0  0  0  0  0
    4.8759    0.0155    4.4510 H   0  0  0  0  0  0  0  0  0  0  0  0
    7.7903   -1.1557    7.6090 H   0  0  0  0  0  0  0  0  0  0  0  0
    7.2385    0.3376    8.3293 H   0  0  0  0  0  0  0  0  0  0  0  0
    7.2584   -3.1368    8.6315 H   0  0  0  0  0  0  0  0  0  0  0  0
    5.5301   -4.6106    9.6507 H   0  0  0  0  0  0  0  0  0  0  0  0
    3.7516   -3.6328   10.8740 H   0  0  0  0  0  0  0  0  0  0  0  0
    3.6806   -1.1631   11.1415 H   0  0  0  0  0  0  0  0  0  0  0  0
    4.7816    0.2224    9.3638 H   0  0  0  0  0  0  0  0  0  0  0  0
    6.4367   -2.8762    7.1257 H   0  0  0  0  0  0  0  0  0  0  0  0
    5.5416   -4.6675    5.7206 H   0  0  0  0  0  0  0  0  0  0  0  0
    4.4821   -5.9255    2.3531 H   0  0  0  0  0  0  0  0  0  0  0  0
    4.5185   -5.9789    4.0992 H   0  0  0  0  0  0  0  0  0  0  0  0
    2.0400   -5.1894    1.3290 H   0  0  0  0  0  0  0  0  0  0  0  0
   -0.4086   -5.2880    1.7679 H   0  0  0  0  0  0  0  0  0  0  0  0
    0.4038   -7.9882    4.8627 H   0  0  0  0  0  0  0  0  0  0  0  0
    2.7506   -7.1190    5.0341 H   0  0  0  0  0  0  0  0  0  0  0  0
    4.1758    0.0026    1.9985 H   0  0  0  0  0  0  0  0  0  0  0  0
    2.5319   -0.2659    2.4994 H   0  0  0  0  0  0  0  0  0  0  0  0
  1  2  2  0  0  0  0
  2  3  1  0  0  0  0
  2  4  1  0  0  0  0
  3 33  1  0  0  0  0
  4  5  1  0  0  0  0
  4 32  1  0  0  0  0
  4 34  1  0  0  0  0
  5  6  1  0  0  0  0
  5 35  1  0  0  0  0
  5 36  1  0  0  0  0
  6  7  1  0  0  0  0
  6 37  1  0  0  0  0
  6 38  1  0  0  0  0
  7  8  2  0  0  0  0
  7 23  1  0  0  0  0
  8  9  1  0  0  0  0
  8 32  1  0  0  0  0
  9 10  1  0  0  0  0
  9 22  2  0  0  0  0
 10 11  2  0  0  0  0
 10 39  1  0  0  0  0
 11 12  1  0  0  0  0
 11 20  1  0  0  0  0
 12 13  1  0  0  0  0
 13 14  1  0  0  0  0
 13 40  1  0  0  0  0
 13 41  1  0  0  0  0
 14 15  1  0  0  0  0
 14 19  2  0  0  0  0
 15 16  2  0  0  0  0
 15 42  1  0  0  0  0
 16 17  1  0  0  0  0
 16 43  1  0  0  0  0
 17 18  2  0  0  0  0
 17 44  1  0  0  0  0
 18 19  1  0  0  0  0
 18 45  1  0  0  0  0
 19 46  1  0  0  0  0
 20 21  2  0  0  0  0
 20 47  1  0  0  0  0
 21 22  1  0  0  0  0
 21 48  1  0  0  0  0
 22 23  1  0  0  0  0
 23 24  1  0  0  0  0
 24 25  1  0  0  0  0
 24 49  1  0  0  0  0
 24 50  1  0  0  0  0
 25 26  1  0  0  0  0
 25 31  2  0  0  0  0
 26 27  2  0  0  0  0
 26 51  1  0  0  0  0
 27 28  1  0  0  0  0
 27 52  1  0  0  0  0
 28 29  1  0  0  0  0
 28 30  2  0  0  0  0
 30 31  1  0  0  0  0
 30 53  1  0  0  0  0
 31 54  1  0  0  0  0
 32 55  1  0  0  0  0
 32 56  1  0  0  0  0
M  END
