REMARK  Name = 
REMARK  11 active torsions:
REMARK  status: ('A' for Active; 'I' for Inactive)
REMARK    1  A    between atoms: C_2  and  O_3
REMARK    2  A    between atoms: C_2  and  C_16
REMARK    3  A    between atoms: O_3  and  C_4
REMARK    4  A    between atoms: C_6  and  C_7
REMARK    5  A    between atoms: C_7  and  O_9
REMARK    6  A    between atoms: C_10  and  O_11
REMARK    7  A    between atoms: C_12  and  O_13
REMARK    8  A    between atoms: C_14  and  O_15
REMARK    9  A    between atoms: C_23  and  C_24
REMARK   10  A    between atoms: C_27  and  C_28
REMARK   11  A    between atoms: C_28  and  O_29
REMARK                            x       y       z     vdW  Elec       q    Type
REMARK                         _______ _______ _______ _____ _____    ______ ____
ROOT
ATOM      1  C   UNL     1       3.052   1.273  -0.566  0.00  0.00    +0.000 A 
ATOM      2  C   UNL     1       4.187   1.134  -1.331  0.00  0.00    +0.000 A 
ATOM      3  N   UNL     1       4.675   2.362  -1.692  0.00  0.00    +0.000 N 
ATOM      4  C   UNL     1       3.886   3.334  -1.121  0.00  0.00    +0.000 A 
ATOM      5  C   UNL     1       4.041   4.725  -1.146  0.00  0.00    +0.000 A 
ATOM      6  C   UNL     1       3.121   5.449  -0.414  0.00  0.00    +0.000 A 
ATOM      7 CL   UNL     1       3.265   7.188  -0.369  0.00  0.00    +0.000 Cl
ATOM      8  C   UNL     1       2.084   4.853   0.324  0.00  0.00    +0.000 A 
ATOM      9  C   UNL     1       1.941   3.475   0.332  0.00  0.00    +0.000 A 
ATOM     10  C   UNL     1       2.845   2.689  -0.405  0.00  0.00    +0.000 A 
ATOM     11  H   UNL     1       5.488   2.528  -2.285  0.00  0.00    +0.000 HD
ENDROOT
BRANCH   8  12
ATOM     12  C   UNL     1       1.118   5.721   1.114  0.00  0.00    +0.000 A 
ATOM     13  C   UNL     1       0.997   5.460   2.469  0.00  0.00    +0.000 A 
ATOM     14  C   UNL     1      -0.161   6.020   3.060  0.00  0.00    +0.000 A 
ATOM     15  C   UNL     1      -0.881   6.989   2.524  0.00  0.00    +0.000 A 
ATOM     16  C   UNL     1      -0.666   7.244   1.198  0.00  0.00    +0.000 A 
ATOM     17  C   UNL     1       0.363   6.638   0.519  0.00  0.00    +0.000 A 
BRANCH  15  18
ATOM     18  C   UNL     1      -1.894   7.777   3.337  0.00  0.00    +0.000 C 
ATOM     19  C   UNL     1      -1.538   9.261   3.537  0.00  0.00    +0.000 C 
ATOM     20  C   UNL     1      -2.207   9.226   4.922  0.00  0.00    +0.000 C 
ATOM     21  C   UNL     1      -2.085   7.698   4.895  0.00  0.00    +0.000 C 
BRANCH  18  22
ATOM     22  O   UNL     1      -3.179   7.621   2.775  0.00  0.00    +0.000 OA
ATOM     23  H   UNL     1      -3.843   8.140   3.312  0.00  0.00    +0.000 HD
ENDBRANCH  18  22
ENDBRANCH  15  18
ENDBRANCH   8  12
BRANCH   1  25
ATOM     24  O   UNL     1       1.021   0.095   0.022  0.00  0.00    +0.000 OA
ATOM     25  C   UNL     1       2.292   0.095   0.022  0.00  0.00    +0.000 C 
BRANCH  25  26
ATOM     26  O   UNL     1       3.002  -1.005   0.571  0.00  0.00    +0.000 OA
BRANCH  26  27
ATOM     27  C   UNL     1       4.422  -1.005   0.571  0.00  0.00    +0.000 C 
ATOM     28  O   UNL     1       4.934   0.178   1.396  0.00  0.00    +0.000 OA
ATOM     29  C   UNL     1       4.504   0.034   2.752  0.00  0.00    +0.000 C 
ATOM     30  C   UNL     1       4.991  -1.144   3.396  0.00  0.00    +0.000 C 
ATOM     31  C   UNL     1       4.481  -2.381   2.651  0.00  0.00    +0.000 C 
ATOM     32  C   UNL     1       4.934  -2.309   1.190  0.00  0.00    +0.000 C 
BRANCH  29  33
ATOM     33  C   UNL     1       2.988  -0.078   2.721  0.00  0.00    +0.000 C 
ATOM     34  O   UNL     1       2.275   0.790   3.315  0.00  0.00    +0.000 OA
BRANCH  33  35
ATOM     35  O   UNL     1       2.369  -1.152   2.028  0.00  0.00    +0.000 OA
ATOM     36  H   UNL     1       1.372  -1.226   2.008  0.00  0.00    +0.000 HD
ENDBRANCH  33  35
ENDBRANCH  29  33
BRANCH  30  37
ATOM     37  O   UNL     1       4.529  -1.176   4.738  0.00  0.00    +0.000 OA
ATOM     38  H   UNL     1       3.529  -1.181   4.747  0.00  0.00    +0.000 HD
ENDBRANCH  30  37
BRANCH  31  39
ATOM     39  O   UNL     1       3.063  -2.422   2.710  0.00  0.00    +0.000 OA
ATOM     40  H   UNL     1       2.687  -1.599   2.285  0.00  0.00    +0.000 HD
ENDBRANCH  31  39
BRANCH  32  41
ATOM     41  O   UNL     1       4.414  -3.418   0.472  0.00  0.00    +0.000 OA
ATOM     42  H   UNL     1       3.414  -3.401   0.511  0.00  0.00    +0.000 HD
ENDBRANCH  32  41
ENDBRANCH  26  27
ENDBRANCH  25  26
ENDBRANCH   1  25
TORSDOF 11
