REMARK  Name = 
REMARK  11 active torsions:
REMARK  status: ('A' for Active; 'I' for Inactive)
REMARK    1  A    between atoms: C_1  and  N_2
REMARK    2  A    between atoms: N_2  and  C_3
REMARK    3  A    between atoms: N_2  and  S_4
REMARK    4  A    between atoms: S_4  and  C_5
REMARK    5  A    between atoms: N_7  and  C_8
REMARK    6  A    between atoms: C_8  and  C_9
REMARK    7  A    between atoms: C_12  and  C_13
REMARK    8  A    between atoms: C_16  and  C_17
REMARK    9  A    between atoms: C_21  and  O_22
REMARK   10  A    between atoms: O_22  and  C_23
REMARK   11  A    between atoms: C_27  and  O_28
REMARK                            x       y       z     vdW  Elec       q    Type
REMARK                         _______ _______ _______ _____ _____    ______ ____
ROOT
ATOM      1  C   UNL     1      -0.926  -4.044  11.225  0.00  0.00    +0.000 A 
ATOM      2  N   UNL     1      -1.951  -4.950  11.035  0.00  0.00    +0.000 NA
ATOM      3  C   UNL     1      -2.123  -6.000  11.942  0.00  0.00    +0.000 A 
ATOM      4  N   UNL     1      -3.074  -7.105  12.043  0.00  0.00    +0.000 NA
ATOM      5  C   UNL     1      -2.771  -7.799  13.101  0.00  0.00    +0.000 A 
ATOM      6  N   UNL     1      -1.662  -7.240  13.743  0.00  0.00    +0.000 N 
ATOM      7  C   UNL     1      -1.250  -6.127  13.038  0.00  0.00    +0.000 A 
ATOM      8  C   UNL     1      -0.224  -5.206  13.212  0.00  0.00    +0.000 A 
ATOM      9  C   UNL     1      -0.061  -4.178  12.311  0.00  0.00    +0.000 A 
ATOM     10 CL   UNL     1       1.265  -3.011  12.533  0.00  0.00    +0.000 Cl
ATOM     11  H   UNL     1      -1.227  -7.596  14.594  0.00  0.00    +0.000 HD
ENDROOT
BRANCH   1  15
ATOM     12  C   UNL     1      -0.323  -1.288   8.019  0.00  0.00    +0.000 A 
ATOM     13  C   UNL     1      -1.530  -1.263   8.699  0.00  0.00    +0.000 A 
ATOM     14  C   UNL     1      -1.543  -2.055   9.871  0.00  0.00    +0.000 A 
ATOM     15  C   UNL     1      -0.673  -3.012  10.139  0.00  0.00    +0.000 A 
ATOM     16  C   UNL     1       0.468  -3.023   9.386  0.00  0.00    +0.000 A 
ATOM     17  C   UNL     1       0.610  -2.188   8.305  0.00  0.00    +0.000 A 
BRANCH  12  21
ATOM     18  C   UNL     1       0.370   1.895   5.256  0.00  0.00    +0.000 A 
ATOM     19  C   UNL     1      -0.079   2.205   6.529  0.00  0.00    +0.000 A 
ATOM     20  C   UNL     1      -0.065   1.110   7.425  0.00  0.00    +0.000 A 
ATOM     21  C   UNL     1       0.005  -0.157   7.058  0.00  0.00    +0.000 A 
ATOM     22  C   UNL     1       0.389  -0.396   5.768  0.00  0.00    +0.000 A 
ATOM     23  C   UNL     1       0.524   0.634   4.868  0.00  0.00    +0.000 A 
BRANCH  18  24
ATOM     24  C   UNL     1       0.886   2.976   4.320  0.00  0.00    +0.000 C 
BRANCH  24  28
ATOM     25  S   UNL     1       1.056   1.296   2.294  0.00  0.00    +0.000 S 
ATOM     26  C   UNL     1       0.452  -0.112   3.258  0.00  0.00    +0.000 C 
ATOM     27  O   UNL     1       2.586   1.296   2.294  0.00  0.00    +0.000 OA
ATOM     28  N   UNL     1       0.531   2.636   2.935  0.00  0.00    +0.000 NA
BRANCH  25  30
ATOM     29  C   UNL     1       0.959  -0.082   0.041  0.00  0.00    +0.000 C 
ATOM     30  N   UNL     1       0.469   1.169   0.639  0.00  0.00    +0.000 NA
ATOM     31  C   UNL     1      -1.001   1.169   0.639  0.00  0.00    +0.000 C 
ENDBRANCH  25  30
ENDBRANCH  24  28
ENDBRANCH  18  24
ENDBRANCH  12  21
ENDBRANCH   1  15
BRANCH   5  32
ATOM     32  O   UNL     1      -3.466  -8.957  13.540  0.00  0.00    +0.000 OA
BRANCH  32  33
ATOM     33  C   UNL     1      -4.583  -9.436  12.806  0.00  0.00    +0.000 C 
ATOM     34  C   UNL     1      -4.194  -9.741  11.557  0.00  0.00    +0.000 C 
ATOM     35  O   UNL     1      -4.324  -8.570  10.704  0.00  0.00    +0.000 OA
ATOM     36  C   UNL     1      -5.371  -7.657  11.371  0.00  0.00    +0.000 C 
ATOM     37  C   UNL     1      -6.669  -7.739  10.596  0.00  0.00    +0.000 C 
ATOM     38  C   UNL     1      -7.330  -8.842  11.042  0.00  0.00    +0.000 C 
ATOM     39  O   UNL     1      -7.020  -9.073  12.445  0.00  0.00    +0.000 OA
ATOM     40  C   UNL     1      -5.669  -8.383  12.713  0.00  0.00    +0.000 C 
BRANCH  37  41
ATOM     41  O   UNL     1      -6.422  -7.825   9.200  0.00  0.00    +0.000 OA
ATOM     42  H   UNL     1      -5.872  -8.638   9.009  0.00  0.00    +0.000 HD
ENDBRANCH  37  41
ENDBRANCH  32  33
ENDBRANCH   5  32
TORSDOF 8
