
 OpenBabel03142511373D

 64 69  0  0  0  0  0  0  0  0999 V2000
    1.0814   -0.0399    0.0422 C   0  0  0  0  0  0  0  0  0  0  0  0
    0.5914   -0.7515   -1.1471 N   0  0  0  0  0  0  0  0  0  0  0  0
    0.9719   -0.2356   -2.5860 S   0  0  0  0  0  0  0  0  0  0  0  0
    0.4532    1.1925   -2.7697 O   0  0  0  0  0  0  0  0  0  0  0  0
    2.7221   -0.2525   -2.7714 N   0  0  0  0  0  0  0  0  0  0  0  0
    3.0772    0.2289   -4.1142 C   0  0  0  0  0  0  0  0  0  0  0  0
    0.2228   -1.3145   -3.8314 C   0  0  0  0  0  0  0  0  0  0  0  0
   -0.6157   -0.8488   -4.8307 C   0  0  0  0  0  0  0  0  0  0  0  0
   -1.1973   -1.8731   -5.6146 C   0  0  0  0  0  0  0  0  0  0  0  0
   -0.7512   -3.1146   -5.6752 C   0  0  0  0  0  0  0  0  0  0  0  0
   -1.1909   -4.0710   -6.7717 C   0  0  0  0  0  0  0  0  0  0  0  0
   -0.8506   -3.9041   -8.1039 C   0  0  0  0  0  0  0  0  0  0  0  0
   -1.4615   -4.8385   -8.9732 C   0  0  0  0  0  0  0  0  0  0  0  0
   -2.0049   -5.9780   -8.5854 C   0  0  0  0  0  0  0  0  0  0  0  0
   -2.3355   -7.0847   -9.5735 C   0  0  0  0  0  0  0  0  0  0  0  0
   -1.3311   -7.4988  -10.4257 N   0  0  0  0  0  0  0  0  0  0  0  0
   -1.6283   -8.3860  -11.4646 C   0  0  0  0  0  0  0  0  0  0  0  0
   -0.8332   -9.0110  -12.5205 N   0  0  0  0  0  0  0  0  0  0  0  0
   -1.6262   -9.7632  -13.2259 C   0  0  0  0  0  0  0  0  0  0  0  0
   -1.2269  -10.5388  -14.3463 O   0  0  0  0  0  0  0  0  0  0  0  0
    0.1282  -10.5282  -14.7705 C   0  0  0  0  0  0  0  0  0  0  0  0
    0.9196  -10.9687  -13.7792 C   0  0  0  0  0  0  0  0  0  0  0  0
    1.3075   -9.8529  -12.9301 O   0  0  0  0  0  0  0  0  0  0  0  0
    1.1740   -8.5817  -13.7902 C   0  0  0  0  0  0  0  0  0  0  0  0
    2.5543   -8.1010  -14.1869 C   0  0  0  0  0  0  0  0  0  0  0  0
    3.4792   -8.2829  -13.1249 O   0  0  0  0  0  0  0  0  0  0  0  0
    2.9254   -8.8185  -15.2829 C   0  0  0  0  0  0  0  0  0  0  0  0
    1.7523   -9.1605  -16.0727 O   0  0  0  0  0  0  0  0  0  0  0  0
    0.5497   -9.1130  -15.1112 C   0  0  0  0  0  0  0  0  0  0  0  0
   -2.9286   -9.6977  -12.7215 N   0  0  0  0  0  0  0  0  0  0  0  0
   -2.9449   -8.8498  -11.6329 C   0  0  0  0  0  0  0  0  0  0  0  0
   -3.9430   -8.4227  -10.7645 C   0  0  0  0  0  0  0  0  0  0  0  0
   -3.6389   -7.5528   -9.7416 C   0  0  0  0  0  0  0  0  0  0  0  0
   -4.9189   -7.0211   -8.6248 Cl  0  0  0  0  0  0  0  0  0  0  0  0
   -2.2540   -6.1087   -7.2474 C   0  0  0  0  0  0  0  0  0  0  0  0
   -1.8029   -5.1714   -6.3498 C   0  0  0  0  0  0  0  0  0  0  0  0
    0.1274   -3.4934   -4.6985 C   0  0  0  0  0  0  0  0  0  0  0  0
    0.6391   -2.5753   -3.8135 C   0  0  0  0  0  0  0  0  0  0  0  0
    0.7247   -0.5307    0.9236 H   0  0  0  0  0  0  0  0  0  0  0  0
    0.7247    0.9688    0.0265 H   0  0  0  0  0  0  0  0  0  0  0  0
    2.1514   -0.0399    0.0422 H   0  0  0  0  0  0  0  0  0  0  0  0
    3.1442    0.3555   -2.0696 H   0  0  0  0  0  0  0  0  0  0  0  0
    2.7145    1.2273   -4.2427 H   0  0  0  0  0  0  0  0  0  0  0  0
    4.1412    0.2187   -4.2270 H   0  0  0  0  0  0  0  0  0  0  0  0
    2.6343   -0.4089   -4.8504 H   0  0  0  0  0  0  0  0  0  0  0  0
   -0.8064    0.1912   -4.9948 H   0  0  0  0  0  0  0  0  0  0  0  0
   -2.0584   -1.6245   -6.1991 H   0  0  0  0  0  0  0  0  0  0  0  0
   -0.1859   -3.1379   -8.4448 H   0  0  0  0  0  0  0  0  0  0  0  0
   -1.4850   -4.6056  -10.0173 H   0  0  0  0  0  0  0  0  0  0  0  0
    0.2200  -11.1605  -15.6288 H   0  0  0  0  0  0  0  0  0  0  0  0
    0.3882  -11.6909  -13.1953 H   0  0  0  0  0  0  0  0  0  0  0  0
    1.7957  -11.4194  -14.1968 H   0  0  0  0  0  0  0  0  0  0  0  0
    0.6314   -7.8090  -13.2868 H   0  0  0  0  0  0  0  0  0  0  0  0
    2.5265   -7.0577  -14.4227 H   0  0  0  0  0  0  0  0  0  0  0  0
    3.5243   -9.2525  -12.8845 H   0  0  0  0  0  0  0  0  0  0  0  0
    3.4111   -9.7179  -14.9667 H   0  0  0  0  0  0  0  0  0  0  0  0
    3.5959   -8.2348  -15.8785 H   0  0  0  0  0  0  0  0  0  0  0  0
   -0.2655   -8.5513  -15.5172 H   0  0  0  0  0  0  0  0  0  0  0  0
   -3.7355  -10.1957  -13.0971 H   0  0  0  0  0  0  0  0  0  0  0  0
   -4.9471   -8.7700  -10.8910 H   0  0  0  0  0  0  0  0  0  0  0  0
   -2.8083   -6.9531   -6.8943 H   0  0  0  0  0  0  0  0  0  0  0  0
   -1.9460   -5.3295   -5.3012 H   0  0  0  0  0  0  0  0  0  0  0  0
    0.4208   -4.5196   -4.6222 H   0  0  0  0  0  0  0  0  0  0  0  0
    1.3797   -2.8791   -3.1035 H   0  0  0  0  0  0  0  0  0  0  0  0
  1  2  1  0  0  0  0
  1 39  1  0  0  0  0
  1 40  1  0  0  0  0
  1 41  1  0  0  0  0
  2  3  2  0  0  0  0
  3  4  2  0  0  0  0
  3  5  1  0  0  0  0
  3  7  1  0  0  0  0
  5  6  1  0  0  0  0
  5 42  1  0  0  0  0
  6 43  1  0  0  0  0
  6 44  1  0  0  0  0
  6 45  1  0  0  0  0
  7  8  1  0  0  0  0
  7 38  2  0  0  0  0
  8  9  2  0  0  0  0
  8 46  1  0  0  0  0
  9 10  1  0  0  0  0
  9 47  1  0  0  0  0
 10 11  1  0  0  0  0
 10 37  2  0  0  0  0
 11 12  1  0  0  0  0
 11 36  2  0  0  0  0
 12 13  2  0  0  0  0
 12 48  1  0  0  0  0
 13 14  1  0  0  0  0
 13 49  1  0  0  0  0
 14 15  1  0  0  0  0
 14 35  2  0  0  0  0
 15 16  1  0  0  0  0
 15 33  2  0  0  0  0
 16 17  2  0  0  0  0
 17 18  1  0  0  0  0
 17 31  1  0  0  0  0
 18 19  2  0  0  0  0
 19 20  1  0  0  0  0
 19 30  1  0  0  0  0
 20 21  1  0  0  0  0
 21 22  1  0  0  0  0
 21 29  1  0  0  0  0
 21 50  1  0  0  0  0
 22 23  1  0  0  0  0
 22 51  1  0  0  0  0
 22 52  1  0  0  0  0
 23 24  1  0  0  0  0
 24 25  1  0  0  0  0
 24 29  1  0  0  0  0
 24 53  1  0  0  0  0
 25 26  1  0  0  0  0
 25 27  1  0  0  0  0
 25 54  1  0  0  0  0
 26 55  1  0  0  0  0
 27 28  1  0  0  0  0
 27 56  1  0  0  0  0
 27 57  1  0  0  0  0
 28 29  1  0  0  0  0
 29 58  1  0  0  0  0
 30 31  1  0  0  0  0
 30 59  1  0  0  0  0
 31 32  2  0  0  0  0
 32 33  1  0  0  0  0
 32 60  1  0  0  0  0
 33 34  1  0  0  0  0
 35 36  1  0  0  0  0
 35 61  1  0  0  0  0
 36 62  1  0  0  0  0
 37 38  1  0  0  0  0
 37 63  1  0  0  0  0
 38 64  1  0  0  0  0
M  END
