REMARK  Name = 
REMARK  7 active torsions:
REMARK  status: ('A' for Active; 'I' for Inactive)
REMARK    1  A    between atoms: C_2  and  O_3
REMARK    2  A    between atoms: O_3  and  C_4
REMARK    3  A    between atoms: C_7  and  C_8
REMARK    4  A    between atoms: C_11  and  C_12
REMARK    5  A    between atoms: C_16  and  O_17
REMARK    6  A    between atoms: O_17  and  C_18
REMARK    7  A    between atoms: C_22  and  O_23
REMARK                            x       y       z     vdW  Elec       q    Type
REMARK                         _______ _______ _______ _____ _____    ______ ____
ROOT
ATOM      1  C   UNL     1       4.915   5.580  -3.386  0.00  0.00    +0.000 A 
ATOM      2  N   UNL     1       3.557   5.736  -3.587  0.00  0.00    +0.000 NA
ATOM      3  C   UNL     1       3.072   6.927  -4.136  0.00  0.00    +0.000 A 
ATOM      4  N   UNL     1       1.736   7.415  -4.474  0.00  0.00    +0.000 NA
ATOM      5  C   UNL     1       1.861   8.613  -4.965  0.00  0.00    +0.000 A 
ATOM      6  N   UNL     1       3.208   8.988  -4.987  0.00  0.00    +0.000 N 
ATOM      7  C   UNL     1       3.968   7.955  -4.478  0.00  0.00    +0.000 A 
ATOM      8  C   UNL     1       5.331   7.781  -4.268  0.00  0.00    +0.000 A 
ATOM      9  C   UNL     1       5.798   6.606  -3.722  0.00  0.00    +0.000 A 
ATOM     10 CL   UNL     1       7.543   6.395  -3.443  0.00  0.00    +0.000 Cl
ATOM     11  H   UNL     1       3.569   9.880  -5.325  0.00  0.00    +0.000 HD
ENDROOT
BRANCH   1  15
ATOM     12  C   UNL     1       6.463   1.916  -1.831  0.00  0.00    +0.000 A 
ATOM     13  C   UNL     1       5.630   1.870  -2.936  0.00  0.00    +0.000 A 
ATOM     14  C   UNL     1       5.353   3.138  -3.499  0.00  0.00    +0.000 A 
ATOM     15  C   UNL     1       5.536   4.289  -2.878  0.00  0.00    +0.000 A 
ATOM     16  C   UNL     1       6.313   4.257  -1.754  0.00  0.00    +0.000 A 
ATOM     17  C   UNL     1       6.731   3.063  -1.218  0.00  0.00    +0.000 A 
BRANCH  12  21
ATOM     18  C   UNL     1       4.481  -0.886  -0.808  0.00  0.00    +0.000 C 
ATOM     19  C   UNL     1       4.990  -0.644  -2.234  0.00  0.00    +0.000 C 
ATOM     20  C   UNL     1       6.508  -0.520  -2.279  0.00  0.00    +0.000 C 
ATOM     21  C   UNL     1       7.000   0.578  -1.349  0.00  0.00    +0.000 C 
ATOM     22  C   UNL     1       6.505   0.322   0.068  0.00  0.00    +0.000 C 
ATOM     23  C   UNL     1       4.987   0.215   0.119  0.00  0.00    +0.000 C 
BRANCH  18  24
ATOM     24  O   UNL     1       3.062  -0.886  -0.808  0.00  0.00    +0.000 OA
BRANCH  24  26
ATOM     25  O   UNL     1       1.081  -0.013   0.058  0.00  0.00    +0.000 OA
ATOM     26  C   UNL     1       2.352  -0.013   0.058  0.00  0.00    +0.000 C 
ATOM     27  N   UNL     1       3.087   0.892   0.954  0.00  0.00    +0.000 N 
ATOM     28  C   UNL     1       2.740   1.089   2.373  0.00  0.00    +0.000 C 
ATOM     29  C   UNL     1       2.506   2.561   2.632  0.00  0.00    +0.000 C 
ATOM     30  O   UNL     1       3.655   3.332   2.282  0.00  0.00    +0.000 OA
ATOM     31  C   UNL     1       3.955   3.157   0.897  0.00  0.00    +0.000 C 
ATOM     32  C   UNL     1       4.263   1.705   0.584  0.00  0.00    +0.000 C 
ENDBRANCH  24  26
ENDBRANCH  18  24
ENDBRANCH  12  21
ENDBRANCH   1  15
BRANCH   5  33
ATOM     33  O   UNL     1       0.784   9.424  -5.413  0.00  0.00    +0.000 OA
BRANCH  33  34
ATOM     34  C   UNL     1      -0.548   8.938  -5.342  0.00  0.00    +0.000 C 
ATOM     35  C   UNL     1      -0.961   8.632  -4.101  0.00  0.00    +0.000 C 
ATOM     36  O   UNL     1      -0.689   7.229  -3.827  0.00  0.00    +0.000 OA
ATOM     37  C   UNL     1      -0.600   6.525  -5.194  0.00  0.00    +0.000 C 
ATOM     38  C   UNL     1      -1.859   5.714  -5.420  0.00  0.00    +0.000 C 
ATOM     39  C   UNL     1      -2.801   6.568  -5.907  0.00  0.00    +0.000 C 
ATOM     40  O   UNL     1      -2.164   7.611  -6.696  0.00  0.00    +0.000 OA
ATOM     41  C   UNL     1      -0.707   7.702  -6.205  0.00  0.00    +0.000 C 
BRANCH  38  42
ATOM     42  O   UNL     1      -2.297   5.112  -4.210  0.00  0.00    +0.000 OA
ATOM     43  H   UNL     1      -2.481   5.822  -3.531  0.00  0.00    +0.000 HD
ENDBRANCH  38  42
ENDBRANCH  33  34
ENDBRANCH   5  33
TORSDOF 7
