
 OpenBabel03132512093D

 65 69  0  0  0  0  0  0  0  0999 V2000
    2.4380   -0.0000    0.0380 C   0  0  0  0  0  0  0  0  0  0  0  0
    1.0180   -0.0020   -0.2960 N   0  0  0  0  0  0  0  0  0  0  0  0
    0.3520    1.1660    0.2430 C   0  0  0  0  0  0  0  0  0  0  0  0
   -1.1080    1.2200   -0.1800 C   0  0  0  0  0  0  0  0  0  0  0  0
   -1.8140   -0.0100    0.1560 N   0  0  0  0  0  0  0  0  0  0  0  0
   -2.0555   -0.0242    1.6060 C   0  0  0  0  0  0  0  0  0  0  0  0
   -0.7265    0.0305    2.3415 C   0  0  0  0  0  0  0  0  0  0  0  0
    0.0101    1.3051    1.9630 C   0  0  0  0  0  0  0  0  0  0  0  0
   -0.7768    2.4311    2.3228 O   0  0  0  0  0  0  0  0  0  0  0  0
   -2.0698    2.6024    1.7614 C   0  0  0  0  0  0  0  0  0  0  0  0
   -2.4443    3.8494    1.2887 C   0  0  0  0  0  0  0  0  0  0  0  0
   -3.8291    3.9701    1.0246 C   0  0  0  0  0  0  0  0  0  0  0  0
   -4.6548    2.9503    0.8752 C   0  0  0  0  0  0  0  0  0  0  0  0
   -4.2000    1.7325    1.2990 C   0  0  0  0  0  0  0  0  0  0  0  0
   -5.1514    0.5475    1.3313 C   0  0  0  0  0  0  0  0  0  0  0  0
   -6.3141    0.8563    2.2604 C   0  0  0  0  0  0  0  0  0  0  0  0
   -7.5028    0.8612    1.8108 O   0  0  0  0  0  0  0  0  0  0  0  0
   -6.0635    1.1494    3.6789 N   0  0  0  0  0  0  0  0  0  0  0  0
   -4.6886    1.1438    4.1989 C   0  0  0  0  0  0  0  0  0  0  0  0
   -3.6988    1.7145    3.5753 N   0  0  0  0  0  0  0  0  0  0  0  0
   -2.5032    1.6014    4.2653 C   0  0  0  0  0  0  0  0  0  0  0  0
   -1.1975    2.2030    3.7719 C   0  0  0  0  0  0  0  0  0  0  0  0
   -0.0474    1.5462    3.4606 C   0  0  0  0  0  0  0  0  0  0  0  0
    0.9151    2.4270    2.9993 N   0  0  0  0  0  0  0  0  0  0  0  0
    0.3708    3.6996    3.0362 C   0  0  0  0  0  0  0  0  0  0  0  0
    1.0293    4.8071    2.7004 N   0  0  0  0  0  0  0  0  0  0  0  0
    0.3237    5.9310    2.8625 C   0  0  0  0  0  0  0  0  0  0  0  0
   -0.9783    5.9723    3.3630 C   0  0  0  0  0  0  0  0  0  0  0  0
   -1.6337    4.8003    3.6932 C   0  0  0  0  0  0  0  0  0  0  0  0
   -0.9493    3.6052    3.5224 C   0  0  0  0  0  0  0  0  0  0  0  0
   -2.6094    0.8954    5.4353 C   0  0  0  0  0  0  0  0  0  0  0  0
   -4.2558    0.3783    5.6888 S   0  0  0  0  0  0  0  0  0  0  0  0
   -2.8954    1.5645    1.6961 C   0  0  0  0  0  0  0  0  0  0  0  0
   -1.0970   -1.2070   -0.1960 C   0  0  0  0  0  0  0  0  0  0  0  0
    0.3440   -1.1640    0.2580 C   0  0  0  0  0  0  0  0  0  0  0  0
    2.8992    0.8749   -0.3703 H   0  0  0  0  0  0  0  0  0  0  0  0
    2.5542   -0.0011    1.1017 H   0  0  0  0  0  0  0  0  0  0  0  0
    2.9022   -0.8724   -0.3724 H   0  0  0  0  0  0  0  0  0  0  0  0
    0.3903    1.1114    1.3109 H   0  0  0  0  0  0  0  0  0  0  0  0
    0.8494    2.0445   -0.1116 H   0  0  0  0  0  0  0  0  0  0  0  0
   -1.1425    1.3441   -1.2422 H   0  0  0  0  0  0  0  0  0  0  0  0
   -1.5830    2.0392    0.3181 H   0  0  0  0  0  0  0  0  0  0  0  0
   -2.6484    0.8243    1.8771 H   0  0  0  0  0  0  0  0  0  0  0  0
   -2.5740   -0.9214    1.8724 H   0  0  0  0  0  0  0  0  0  0  0  0
   -0.9022    0.0202    3.3969 H   0  0  0  0  0  0  0  0  0  0  0  0
   -0.1336   -0.8179    2.0704 H   0  0  0  0  0  0  0  0  0  0  0  0
    0.9456    1.3437    2.4808 H   0  0  0  0  0  0  0  0  0  0  0  0
    0.1858    1.3155    0.9076 H   0  0  0  0  0  0  0  0  0  0  0  0
   -1.7495    4.6488    1.1370 H   0  0  0  0  0  0  0  0  0  0  0  0
   -4.2357    4.9562    0.9401 H   0  0  0  0  0  0  0  0  0  0  0  0
   -5.6273    3.0706    0.4455 H   0  0  0  0  0  0  0  0  0  0  0  0
   -5.5226    0.3611    0.3452 H   0  0  0  0  0  0  0  0  0  0  0  0
   -4.6314   -0.3178    1.6861 H   0  0  0  0  0  0  0  0  0  0  0  0
   -6.8438    1.3566    4.3024 H   0  0  0  0  0  0  0  0  0  0  0  0
    0.0939    0.4902    3.5593 H   0  0  0  0  0  0  0  0  0  0  0  0
    1.8554    2.1829    2.6883 H   0  0  0  0  0  0  0  0  0  0  0  0
    0.7864    6.8569    2.5915 H   0  0  0  0  0  0  0  0  0  0  0  0
   -1.4709    6.9135    3.4915 H   0  0  0  0  0  0  0  0  0  0  0  0
   -2.6357    4.8144    4.0682 H   0  0  0  0  0  0  0  0  0  0  0  0
   -1.7963    0.6903    6.0999 H   0  0  0  0  0  0  0  0  0  0  0  0
   -2.5416    0.5885    1.9551 H   0  0  0  0  0  0  0  0  0  0  0  0
   -1.1029   -1.2916   -1.2626 H   0  0  0  0  0  0  0  0  0  0  0  0
   -1.5783   -2.0447    0.2639 H   0  0  0  0  0  0  0  0  0  0  0  0
    0.8409   -2.0478   -0.0839 H   0  0  0  0  0  0  0  0  0  0  0  0
    0.3752   -1.1130    1.3263 H   0  0  0  0  0  0  0  0  0  0  0  0
  1  2  1  0  0  0  0
  1 36  1  0  0  0  0
  1 37  1  0  0  0  0
  1 38  1  0  0  0  0
  2  3  1  0  0  0  0
  2 35  1  0  0  0  0
  3  4  1  0  0  0  0
  3 39  1  0  0  0  0
  3 40  1  0  0  0  0
  4  5  1  0  0  0  0
  4 41  1  0  0  0  0
  4 42  1  0  0  0  0
  5  6  1  0  0  0  0
  5 34  1  0  0  0  0
  6  7  1  0  0  0  0
  6 43  1  0  0  0  0
  6 44  1  0  0  0  0
  7  8  1  0  0  0  0
  7 45  1  0  0  0  0
  7 46  1  0  0  0  0
  8  9  1  0  0  0  0
  8 47  1  0  0  0  0
  8 48  1  0  0  0  0
  9 10  1  0  0  0  0
 10 11  1  0  0  0  0
 10 33  2  0  0  0  0
 11 12  2  0  0  0  0
 11 49  1  0  0  0  0
 12 13  1  0  0  0  0
 12 50  1  0  0  0  0
 13 14  2  0  0  0  0
 13 51  1  0  0  0  0
 14 15  1  0  0  0  0
 14 33  1  0  0  0  0
 15 16  1  0  0  0  0
 15 52  1  0  0  0  0
 15 53  1  0  0  0  0
 16 17  2  0  0  0  0
 16 18  1  0  0  0  0
 18 19  1  0  0  0  0
 18 54  1  0  0  0  0
 19 20  2  0  0  0  0
 19 32  1  0  0  0  0
 20 21  1  0  0  0  0
 21 22  1  0  0  0  0
 21 31  2  0  0  0  0
 22 23  2  0  0  0  0
 22 30  1  0  0  0  0
 23 24  1  0  0  0  0
 23 55  1  0  0  0  0
 24 25  1  0  0  0  0
 24 56  1  0  0  0  0
 25 26  1  0  0  0  0
 25 30  2  0  0  0  0
 26 27  2  0  0  0  0
 27 28  1  0  0  0  0
 27 57  1  0  0  0  0
 28 29  2  0  0  0  0
 28 58  1  0  0  0  0
 29 30  1  0  0  0  0
 29 59  1  0  0  0  0
 31 32  1  0  0  0  0
 31 60  1  0  0  0  0
 33 61  1  0  0  0  0
 34 35  1  0  0  0  0
 34 62  1  0  0  0  0
 34 63  1  0  0  0  0
 35 64  1  0  0  0  0
 35 65  1  0  0  0  0
M  END
