
 OpenBabel03132512093D

 55 59  0  0  0  0  0  0  0  0999 V2000
    2.2460   -0.0770   -0.0310 N   0  0  0  0  0  0  0  0  0  0  0  0
    0.9190   -0.0780    0.0070 C   0  0  0  0  0  0  0  0  0  0  0  0
    0.1570   -1.2770    0.0470 C   0  0  0  0  0  0  0  0  0  0  0  0
   -1.2140   -1.1740   -0.0140 C   0  0  0  0  0  0  0  0  0  0  0  0
   -2.0619   -2.4349   -0.0534 C   0  0  0  0  0  0  0  0  0  0  0  0
   -2.9751   -2.8493   -1.0710 C   0  0  0  0  0  0  0  0  0  0  0  0
   -3.5958   -4.0394   -0.8504 N   0  0  0  0  0  0  0  0  0  0  0  0
   -3.0544   -4.4216    0.3680 N   0  0  0  0  0  0  0  0  0  0  0  0
   -3.3311   -5.5705    1.0424 C   0  0  0  0  0  0  0  0  0  0  0  0
   -2.6773   -5.7805    2.2572 C   0  0  0  0  0  0  0  0  0  0  0  0
   -2.8932   -7.0743    3.0254 C   0  0  0  0  0  0  0  0  0  0  0  0
   -2.6630   -8.2674    2.3605 C   0  0  0  0  0  0  0  0  0  0  0  0
   -3.2675   -9.3907    2.9727 C   0  0  0  0  0  0  0  0  0  0  0  0
   -3.6991   -9.4218    4.2204 C   0  0  0  0  0  0  0  0  0  0  0  0
   -3.9998  -10.6441    4.8778 O   0  0  0  0  0  0  0  0  0  0  0  0
   -4.4615  -10.6332    6.2206 C   0  0  0  0  0  0  0  0  0  0  0  0
   -3.4140   -9.9853    7.1113 C   0  0  0  0  0  0  0  0  0  0  0  0
   -3.1759   -8.6054    6.6637 N   0  0  0  0  0  0  0  0  0  0  0  0
   -2.0782   -8.3359    7.6104 C   0  0  0  0  0  0  0  0  0  0  0  0
   -2.6525   -8.0841    8.9864 C   0  0  0  0  0  0  0  0  0  0  0  0
   -3.5766   -6.9963    8.9643 O   0  0  0  0  0  0  0  0  0  0  0  0
   -4.6506   -7.2887    8.0701 C   0  0  0  0  0  0  0  0  0  0  0  0
   -4.1445   -7.4906    6.6544 C   0  0  0  0  0  0  0  0  0  0  0  0
   -3.8406   -8.2140    4.8453 C   0  0  0  0  0  0  0  0  0  0  0  0
   -3.3933   -7.0565    4.2553 C   0  0  0  0  0  0  0  0  0  0  0  0
   -1.7886   -4.7577    2.7863 C   0  0  0  0  0  0  0  0  0  0  0  0
   -1.5028   -3.6543    2.0673 N   0  0  0  0  0  0  0  0  0  0  0  0
   -2.1265   -3.4408    0.8820 C   0  0  0  0  0  0  0  0  0  0  0  0
   -1.8330    0.0740   -0.0400 C   0  0  0  0  0  0  0  0  0  0  0  0
   -1.0160    1.2140    0.0260 C   0  0  0  0  0  0  0  0  0  0  0  0
    0.3140    1.1420    0.0090 N   0  0  0  0  0  0  0  0  0  0  0  0
    2.7548    0.8067   -0.0567 H   0  0  0  0  0  0  0  0  0  0  0  0
    2.7568   -0.9599   -0.0345 H   0  0  0  0  0  0  0  0  0  0  0  0
    0.6350   -2.2313    0.1223 H   0  0  0  0  0  0  0  0  0  0  0  0
   -3.1584   -2.2632   -1.9472 H   0  0  0  0  0  0  0  0  0  0  0  0
   -4.0250   -6.2872    0.6552 H   0  0  0  0  0  0  0  0  0  0  0  0
   -2.0809   -8.3336    1.4651 H   0  0  0  0  0  0  0  0  0  0  0  0
   -3.3831  -10.2765    2.3837 H   0  0  0  0  0  0  0  0  0  0  0  0
   -5.3735  -10.0766    6.2796 H   0  0  0  0  0  0  0  0  0  0  0  0
   -4.6348  -11.6375    6.5463 H   0  0  0  0  0  0  0  0  0  0  0  0
   -3.7619   -9.9771    8.1231 H   0  0  0  0  0  0  0  0  0  0  0  0
   -2.5020  -10.5418    7.0522 H   0  0  0  0  0  0  0  0  0  0  0  0
   -1.5315   -7.4745    7.2880 H   0  0  0  0  0  0  0  0  0  0  0  0
   -1.4223   -9.1805    7.6463 H   0  0  0  0  0  0  0  0  0  0  0  0
   -3.1701   -8.9644    9.3060 H   0  0  0  0  0  0  0  0  0  0  0  0
   -1.8552   -7.8522    9.6612 H   0  0  0  0  0  0  0  0  0  0  0  0
   -5.3295   -6.4617    8.0732 H   0  0  0  0  0  0  0  0  0  0  0  0
   -5.1428   -8.1813    8.3957 H   0  0  0  0  0  0  0  0  0  0  0  0
   -3.6752   -6.5969    6.2993 H   0  0  0  0  0  0  0  0  0  0  0  0
   -4.9632   -7.7278    6.0076 H   0  0  0  0  0  0  0  0  0  0  0  0
   -4.3065   -8.1695    5.8075 H   0  0  0  0  0  0  0  0  0  0  0  0
   -3.4484   -6.1324    4.7919 H   0  0  0  0  0  0  0  0  0  0  0  0
   -1.3570   -4.8828    3.7573 H   0  0  0  0  0  0  0  0  0  0  0  0
   -2.8973    0.1609   -0.1081 H   0  0  0  0  0  0  0  0  0  0  0  0
   -1.4790    2.1764    0.0924 H   0  0  0  0  0  0  0  0  0  0  0  0
  1  2  1  0  0  0  0
  1 32  1  0  0  0  0
  1 33  1  0  0  0  0
  2  3  1  0  0  0  0
  2 31  2  0  0  0  0
  3  4  2  0  0  0  0
  3 34  1  0  0  0  0
  4  5  1  0  0  0  0
  4 29  1  0  0  0  0
  5  6  1  0  0  0  0
  5 28  2  0  0  0  0
  6  7  2  0  0  0  0
  6 35  1  0  0  0  0
  7  8  1  0  0  0  0
  8  9  1  0  0  0  0
  8 28  1  0  0  0  0
  9 10  2  0  0  0  0
  9 36  1  0  0  0  0
 10 11  1  0  0  0  0
 10 26  1  0  0  0  0
 11 12  1  0  0  0  0
 11 25  2  0  0  0  0
 12 13  2  0  0  0  0
 12 37  1  0  0  0  0
 13 14  1  0  0  0  0
 13 38  1  0  0  0  0
 14 15  1  0  0  0  0
 14 24  2  0  0  0  0
 15 16  1  0  0  0  0
 16 17  1  0  0  0  0
 16 39  1  0  0  0  0
 16 40  1  0  0  0  0
 17 18  1  0  0  0  0
 17 41  1  0  0  0  0
 17 42  1  0  0  0  0
 18 19  1  0  0  0  0
 18 23  1  0  0  0  0
 19 20  1  0  0  0  0
 19 43  1  0  0  0  0
 19 44  1  0  0  0  0
 20 21  1  0  0  0  0
 20 45  1  0  0  0  0
 20 46  1  0  0  0  0
 21 22  1  0  0  0  0
 22 23  1  0  0  0  0
 22 47  1  0  0  0  0
 22 48  1  0  0  0  0
 23 49  1  0  0  0  0
 23 50  1  0  0  0  0
 24 25  1  0  0  0  0
 24 51  1  0  0  0  0
 25 52  1  0  0  0  0
 26 27  2  0  0  0  0
 26 53  1  0  0  0  0
 27 28  1  0  0  0  0
 29 30  2  0  0  0  0
 29 54  1  0  0  0  0
 30 31  1  0  0  0  0
 30 55  1  0  0  0  0
M  END
