REMARK  Name = 
REMARK  11 active torsions:
REMARK  status: ('A' for Active; 'I' for Inactive)
REMARK    1  A    between atoms: C_1  and  O_2
REMARK    2  A    between atoms: O_2  and  C_3
REMARK    3  A    between atoms: N_10  and  C_11
REMARK    4  A    between atoms: C_21  and  C_22
REMARK    5  A    between atoms: C_22  and  N_23
REMARK    6  A    between atoms: N_23  and  C_24
REMARK    7  A    between atoms: N_23  and  C_27
REMARK    8  A    between atoms: C_24  and  C_25
REMARK    9  A    between atoms: C_24  and  C_26
REMARK   10  A    between atoms: C_27  and  C_28
REMARK   11  A    between atoms: C_27  and  C_29
REMARK                            x       y       z     vdW  Elec       q    Type
REMARK                         _______ _______ _______ _____ _____    ______ ____
ROOT
ATOM      1  C   UNL     1       0.912   0.031   2.438  0.00  0.00    +0.000 A 
ATOM      2  C   UNL     1      -0.054  -0.217   3.373  0.00  0.00    +0.000 A 
ATOM      3  C   UNL     1       0.275  -0.885   4.574  0.00  0.00    +0.000 A 
ATOM      4  N   UNL     1      -0.706  -1.157   5.493  0.00  0.00    +0.000 NA
ATOM      5  C   UNL     1      -0.330  -1.773   6.580  0.00  0.00    +0.000 A 
ATOM      6  N   UNL     1       0.941  -2.162   6.907  0.00  0.00    +0.000 NA
ATOM      7  C   UNL     1       1.891  -1.895   6.044  0.00  0.00    +0.000 A 
ATOM      8  N   UNL     1       3.275  -2.272   6.367  0.00  0.00    +0.000 N 
ATOM      9  C   UNL     1       1.621  -1.250   4.804  0.00  0.00    +0.000 A 
ATOM     10  C   UNL     1       2.604  -0.969   3.828  0.00  0.00    +0.000 A 
ATOM     11  C   UNL     1       2.249  -0.346   2.665  0.00  0.00    +0.000 A 
ATOM     12  H   UNL     1       4.025  -2.071   5.706  0.00  0.00    +0.000 HD
ENDROOT
BRANCH   8  13
ATOM     13  C   UNL     1       3.577  -2.939   7.641  0.00  0.00    +0.000 A 
ATOM     14  C   UNL     1       4.317  -2.315   8.625  0.00  0.00    +0.000 A 
ATOM     15  C   UNL     1       4.468  -2.887   9.881  0.00  0.00    +0.000 A 
ATOM     16  C   UNL     1       3.857  -4.112  10.145  0.00  0.00    +0.000 A 
ATOM     17  C   UNL     1       3.115  -4.735   9.159  0.00  0.00    +0.000 A 
ATOM     18 CL   UNL     1       2.317  -6.235   9.488  0.00  0.00    +0.000 Cl
ATOM     19  C   UNL     1       2.987  -4.145   7.922  0.00  0.00    +0.000 A 
ATOM     20  F   UNL     1       2.244  -4.751   6.974  0.00  0.00    +0.000 F 
ENDBRANCH   8  13
BRANCH   1  22
ATOM     21  C   UNL     1       1.042  -0.089  -0.015  0.00  0.00    +0.000 C 
ATOM     22  O   UNL     1       0.569   0.550   1.161  0.00  0.00    +0.000 OA
ENDBRANCH   1  22
BRANCH  11  23
ATOM     23  C   UNL     1       3.305  -0.059   1.610  0.00  0.00    +0.000 C 
BRANCH  23  24
ATOM     24  N   UNL     1       4.343   0.812   2.181  0.00  0.00    +0.000 NA
BRANCH  24  25
ATOM     25  C   UNL     1       5.364   1.090   1.160  0.00  0.00    +0.000 C 
ATOM     26  C   UNL     1       4.718   1.784  -0.028  0.00  0.00    +0.000 C 
ATOM     27  C   UNL     1       6.438   1.990   1.750  0.00  0.00    +0.000 C 
ENDBRANCH  24  25
BRANCH  24  28
ATOM     28  C   UNL     1       3.735   2.075   2.622  0.00  0.00    +0.000 C 
ATOM     29  C   UNL     1       3.089   2.769   1.435  0.00  0.00    +0.000 C 
BRANCH  28  30
ATOM     30  C   UNL     1       2.679   1.788   3.677  0.00  0.00    +0.000 C 
ATOM     31  N   UNL     1       2.810   2.363   5.024  0.00  0.00    +0.000 N 
ATOM     32  O   UNL     1       1.684   1.050   3.396  0.00  0.00    +0.000 OA
ATOM     33  H   UNL     1       2.102   2.170   5.732  0.00  0.00    +0.000 HD
ATOM     34  H   UNL     1       3.609   2.955   5.250  0.00  0.00    +0.000 HD
ENDBRANCH  28  30
ENDBRANCH  24  28
ENDBRANCH  23  24
ENDBRANCH  11  23
TORSDOF 7
