REMARK  Name = 
REMARK  6 active torsions:
REMARK  status: ('A' for Active; 'I' for Inactive)
REMARK    1  A    between atoms: C_4  and  C_5
REMARK    2  A    between atoms: C_10  and  C_11
REMARK    3  A    between atoms: C_14  and  O_15
REMARK    4  A    between atoms: O_15  and  C_16
REMARK    5  A    between atoms: C_16  and  C_17
REMARK    6  A    between atoms: C_17  and  N_18
REMARK                            x       y       z     vdW  Elec       q    Type
REMARK                         _______ _______ _______ _____ _____    ______ ____
ROOT
ATOM      1  C   UNL     1      -2.005   2.483   0.001  0.00  0.00    +0.000 A 
ATOM      2  C   UNL     1      -2.947   2.933   0.976  0.00  0.00    +0.000 A 
ATOM      3  N   UNL     1      -3.512   4.146   0.728  0.00  0.00    +0.000 NA
ATOM      4  N   UNL     1      -2.902   4.505  -0.465  0.00  0.00    +0.000 N 
ATOM      5  C   UNL     1      -3.104   5.662  -1.152  0.00  0.00    +0.000 A 
ATOM      6  C   UNL     1      -2.389   5.845  -2.336  0.00  0.00    +0.000 A 
ATOM      7  C   UNL     1      -1.516   4.788  -2.824  0.00  0.00    +0.000 A 
ATOM      8  N   UNL     1      -1.305   3.676  -2.092  0.00  0.00    +0.000 NA
ATOM      9  C   UNL     1      -1.989   3.489  -0.936  0.00  0.00    +0.000 A 
ENDROOT
BRANCH   1  13
ATOM     10  O   UNL     1       2.176   0.010   0.000  0.00  0.00    +0.000 OA
ATOM     11  C   UNL     1       0.926   0.065  -0.001  0.00  0.00    +0.000 A 
ATOM     12  C   UNL     1       0.153   1.254   0.001  0.00  0.00    +0.000 A 
ATOM     13  C   UNL     1      -1.204   1.191   0.000  0.00  0.00    +0.000 A 
ATOM     14  C   UNL     1      -1.894  -0.050  -0.002  0.00  0.00    +0.000 A 
ATOM     15  C   UNL     1      -1.133  -1.182   0.002  0.00  0.00    +0.000 A 
ATOM     16  N   UNL     1       0.217  -1.108   0.000  0.00  0.00    +0.000 N 
ATOM     17  H   UNL     1       0.742  -1.982  -0.001  0.00  0.00    +0.000 HD
ENDBRANCH   1  13
BRANCH   6  18
ATOM     18  C   UNL     1      -2.521   7.144  -3.113  0.00  0.00    +0.000 A 
ATOM     19  C   UNL     1      -2.112   8.296  -2.460  0.00  0.00    +0.000 A 
ATOM     20  C   UNL     1      -2.480   9.491  -3.121  0.00  0.00    +0.000 A 
ATOM     21  C   UNL     1      -2.843   9.565  -4.388  0.00  0.00    +0.000 A 
ATOM     22  C   UNL     1      -3.169   8.385  -4.997  0.00  0.00    +0.000 A 
ATOM     23  C   UNL     1      -2.961   7.183  -4.365  0.00  0.00    +0.000 A 
BRANCH  21  24
ATOM     24  O   UNL     1      -2.893  10.803  -5.082  0.00  0.00    +0.000 OA
BRANCH  24  25
ATOM     25  C   UNL     1      -3.289  10.838  -6.445  0.00  0.00    +0.000 C 
BRANCH  25  26
ATOM     26  C   UNL     1      -2.335   9.992  -7.272  0.00  0.00    +0.000 C 
BRANCH  26  27
ATOM     27  N   UNL     1      -2.365   8.604  -6.788  0.00  0.00    +0.000 NA
ATOM     28  C   UNL     1      -1.256   7.818  -7.358  0.00  0.00    +0.000 C 
ATOM     29  C   UNL     1      -1.401   7.763  -8.863  0.00  0.00    +0.000 C 
ATOM     30  O   UNL     1      -2.660   7.201  -9.235  0.00  0.00    +0.000 OA
ATOM     31  C   UNL     1      -3.722   7.994  -8.705  0.00  0.00    +0.000 C 
ATOM     32  C   UNL     1      -3.669   8.037  -7.190  0.00  0.00    +0.000 C 
ENDBRANCH  26  27
ENDBRANCH  25  26
ENDBRANCH  24  25
ENDBRANCH  21  24
ENDBRANCH   6  18
TORSDOF 6
