
 OpenBabel03132512093D

 69 73  0  0  0  0  0  0  0  0999 V2000
    0.9722   -0.0724   -0.0631 C   0  0  0  0  0  0  0  0  0  0  0  0
    0.4655    1.2172   -0.6880 C   0  0  0  0  0  0  0  0  0  0  0  0
    0.9722    1.3208   -2.1173 C   0  0  0  0  0  0  0  0  0  0  0  0
    1.3005    0.2686   -2.9122 C   0  0  0  0  0  0  0  0  0  0  0  0
    1.6808    0.8582   -4.1284 C   0  0  0  0  0  0  0  0  0  0  0  0
    2.1153    0.0917   -5.3050 N   0  0  0  0  0  0  0  0  0  0  0  0
    2.4962    0.7930   -6.5395 C   0  0  0  0  0  0  0  0  0  0  0  0
    2.8719    0.1303   -7.5568 O   0  0  0  0  0  0  0  0  0  0  0  0
    2.4426    2.2609   -6.5973 N   0  0  0  0  0  0  0  0  0  0  0  0
    2.0080    3.0274   -5.4207 C   0  0  0  0  0  0  0  0  0  0  0  0
    1.2444    4.1658   -5.6195 C   0  0  0  0  0  0  0  0  0  0  0  0
    1.2741    5.0729   -4.5340 C   0  0  0  0  0  0  0  0  0  0  0  0
    1.6626    4.7640   -3.3102 C   0  0  0  0  0  0  0  0  0  0  0  0
    1.3578    5.6621   -2.1225 C   0  0  0  0  0  0  0  0  0  0  0  0
    2.2818    6.2524   -1.3001 C   0  0  0  0  0  0  0  0  0  0  0  0
    1.7355    7.1771   -0.4257 N   0  0  0  0  0  0  0  0  0  0  0  0
    0.4435    7.2761   -0.5500 C   0  0  0  0  0  0  0  0  0  0  0  0
   -0.3680    8.1741    0.2842 N   0  0  0  0  0  0  0  0  0  0  0  0
   -1.8241    8.2389    0.0931 C   0  0  0  0  0  0  0  0  0  0  0  0
   -2.5994    7.1033    0.2609 C   0  0  0  0  0  0  0  0  0  0  0  0
   -3.9728    7.1922    0.0931 C   0  0  0  0  0  0  0  0  0  0  0  0
   -4.8093    6.0049    0.3198 N   0  0  0  0  0  0  0  0  0  0  0  0
   -4.8162    5.0494    1.4342 C   0  0  0  0  0  0  0  0  0  0  0  0
   -6.2250    4.7835    1.9286 C   0  0  0  0  0  0  0  0  0  0  0  0
   -7.0513    4.2457    0.8412 N   0  0  0  0  0  0  0  0  0  0  0  0
   -6.5010    2.9586    0.3923 C   0  0  0  0  0  0  0  0  0  0  0  0
   -5.0798    3.1618   -0.1072 C   0  0  0  0  0  0  0  0  0  0  0  0
   -7.0444    5.2013   -0.2733 C   0  0  0  0  0  0  0  0  0  0  0  0
   -5.6356    5.4671   -0.7676 C   0  0  0  0  0  0  0  0  0  0  0  0
   -4.5515    8.3527   -0.2752 N   0  0  0  0  0  0  0  0  0  0  0  0
   -3.7264    9.3917   -0.4233 C   0  0  0  0  0  0  0  0  0  0  0  0
   -4.3462   10.6905   -0.8401 C   0  0  0  0  0  0  0  0  0  0  0  0
   -2.4097    9.3995   -0.2449 N   0  0  0  0  0  0  0  0  0  0  0  0
   -0.2416    6.2657   -1.7758 S   0  0  0  0  0  0  0  0  0  0  0  0
    2.3537    3.5927   -3.1691 C   0  0  0  0  0  0  0  0  0  0  0  0
    2.4797    2.7156   -4.2192 C   0  0  0  0  0  0  0  0  0  0  0  0
    1.6059    2.1712   -4.1002 N   0  0  0  0  0  0  0  0  0  0  0  0
    1.1574    2.4793   -2.8009 O   0  0  0  0  0  0  0  0  0  0  0  0
    0.6155   -0.9073   -0.6293 H   0  0  0  0  0  0  0  0  0  0  0  0
    0.6155   -0.1454    0.9431 H   0  0  0  0  0  0  0  0  0  0  0  0
    2.0422   -0.0724   -0.0631 H   0  0  0  0  0  0  0  0  0  0  0  0
   -0.6045    1.2172   -0.6880 H   0  0  0  0  0  0  0  0  0  0  0  0
    0.8222    2.0521   -0.1218 H   0  0  0  0  0  0  0  0  0  0  0  0
    1.2750   -0.7726   -2.6669 H   0  0  0  0  0  0  0  0  0  0  0  0
    2.1526   -0.9269   -5.2649 H   0  0  0  0  0  0  0  0  0  0  0  0
    2.7069    2.7476   -7.4539 H   0  0  0  0  0  0  0  0  0  0  0  0
    0.6829    4.3431   -6.5130 H   0  0  0  0  0  0  0  0  0  0  0  0
    0.9599    6.0791   -4.7174 H   0  0  0  0  0  0  0  0  0  0  0  0
    3.3259    6.0209   -1.3308 H   0  0  0  0  0  0  0  0  0  0  0  0
    0.0792    8.7523    0.9956 H   0  0  0  0  0  0  0  0  0  0  0  0
   -2.1441    6.1693    0.5168 H   0  0  0  0  0  0  0  0  0  0  0  0
   -4.4018    4.1258    1.0876 H   0  0  0  0  0  0  0  0  0  0  0  0
   -4.2349    5.4491    2.2387 H   0  0  0  0  0  0  0  0  0  0  0  0
   -6.6538    5.7021    2.2711 H   0  0  0  0  0  0  0  0  0  0  0  0
   -6.1906    4.0751    2.7298 H   0  0  0  0  0  0  0  0  0  0  0  0
   -6.4965    2.2681    1.2097 H   0  0  0  0  0  0  0  0  0  0  0  0
   -7.1053    2.5693   -0.4002 H   0  0  0  0  0  0  0  0  0  0  0  0
   -4.4755    3.5511    0.6853 H   0  0  0  0  0  0  0  0  0  0  0  0
   -4.6793    2.2249   -0.4339 H   0  0  0  0  0  0  0  0  0  0  0  0
   -5.0843    3.8523   -0.9245 H   0  0  0  0  0  0  0  0  0  0  0  0
   -7.4588    6.1248    0.0734 H   0  0  0  0  0  0  0  0  0  0  0  0
   -7.6257    4.8015   -1.0777 H   0  0  0  0  0  0  0  0  0  0  0  0
   -5.6739    6.1818   -1.5630 H   0  0  0  0  0  0  0  0  0  0  0  0
   -5.2058    4.5522   -1.1187 H   0  0  0  0  0  0  0  0  0  0  0  0
   -4.1543   11.4330   -0.0939 H   0  0  0  0  0  0  0  0  0  0  0  0
   -3.9245   11.0041   -1.7721 H   0  0  0  0  0  0  0  0  0  0  0  0
   -5.4026   10.5619   -0.9519 H   0  0  0  0  0  0  0  0  0  0  0  0
    2.8030    3.3558   -2.2273 H   0  0  0  0  0  0  0  0  0  0  0  0
    2.9622    1.7727   -4.0674 H   0  0  0  0  0  0  0  0  0  0  0  0
  1  2  1  0  0  0  0
  1 39  1  0  0  0  0
  1 40  1  0  0  0  0
  1 41  1  0  0  0  0
  2  3  1  0  0  0  0
  2 42  1  0  0  0  0
  2 43  1  0  0  0  0
  3  4  2  0  0  0  0
  3 38  1  0  0  0  0
  4  5  1  0  0  0  0
  4 44  1  0  0  0  0
  5  6  1  0  0  0  0
  5 37  2  0  0  0  0
  6  7  1  0  0  0  0
  6 45  1  0  0  0  0
  7  8  2  0  0  0  0
  7  9  1  0  0  0  0
  9 10  1  0  0  0  0
  9 46  1  0  0  0  0
 10 11  1  0  0  0  0
 10 36  2  0  0  0  0
 11 12  2  0  0  0  0
 11 47  1  0  0  0  0
 12 13  1  0  0  0  0
 12 48  1  0  0  0  0
 13 14  1  0  0  0  0
 13 35  2  0  0  0  0
 14 15  2  0  0  0  0
 14 34  1  0  0  0  0
 15 16  1  0  0  0  0
 15 49  1  0  0  0  0
 16 17  2  0  0  0  0
 17 18  1  0  0  0  0
 17 34  1  0  0  0  0
 18 19  1  0  0  0  0
 18 50  1  0  0  0  0
 19 20  1  0  0  0  0
 19 33  2  0  0  0  0
 20 21  2  0  0  0  0
 20 51  1  0  0  0  0
 21 22  1  0  0  0  0
 21 30  1  0  0  0  0
 22 23  1  0  0  0  0
 22 29  1  0  0  0  0
 23 24  1  0  0  0  0
 23 52  1  0  0  0  0
 23 53  1  0  0  0  0
 24 25  1  0  0  0  0
 24 54  1  0  0  0  0
 24 55  1  0  0  0  0
 25 26  1  0  0  0  0
 25 28  1  0  0  0  0
 26 27  1  0  0  0  0
 26 56  1  0  0  0  0
 26 57  1  0  0  0  0
 27 58  1  0  0  0  0
 27 59  1  0  0  0  0
 27 60  1  0  0  0  0
 28 29  1  0  0  0  0
 28 61  1  0  0  0  0
 28 62  1  0  0  0  0
 29 63  1  0  0  0  0
 29 64  1  0  0  0  0
 30 31  2  0  0  0  0
 31 32  1  0  0  0  0
 31 33  1  0  0  0  0
 32 65  1  0  0  0  0
 32 66  1  0  0  0  0
 32 67  1  0  0  0  0
 35 36  1  0  0  0  0
 35 68  1  0  0  0  0
 36 69  1  0  0  0  0
 37 38  1  0  0  0  0
M  END
