
 OpenBabel03132512093D

 51 53  0  0  0  0  0  0  0  0999 V2000
    0.9369   -0.0662   -0.0404 C   0  0  0  0  0  0  0  0  0  0  0  0
    0.4635    1.1702    0.4731 O   0  0  0  0  0  0  0  0  0  0  0  0
    0.8066    1.5691    1.7921 C   0  0  0  0  0  0  0  0  0  0  0  0
   -0.1884    1.9811    2.6343 C   0  0  0  0  0  0  0  0  0  0  0  0
    0.0967    2.2551    3.9907 C   0  0  0  0  0  0  0  0  0  0  0  0
   -0.9136    2.6381    4.8357 N   0  0  0  0  0  0  0  0  0  0  0  0
   -0.5779    2.8775    6.0734 C   0  0  0  0  0  0  0  0  0  0  0  0
    0.6772    2.8018    6.6140 N   0  0  0  0  0  0  0  0  0  0  0  0
    1.6551    2.4505    5.8143 C   0  0  0  0  0  0  0  0  0  0  0  0
    3.0233    2.3811    6.3473 N   0  0  0  0  0  0  0  0  0  0  0  0
    3.2797    2.7032    7.7585 C   0  0  0  0  0  0  0  0  0  0  0  0
    4.0604    3.7925    8.0864 C   0  0  0  0  0  0  0  0  0  0  0  0
    4.2454    4.1711    9.4098 C   0  0  0  0  0  0  0  0  0  0  0  0
    3.6275    3.4318   10.4171 C   0  0  0  0  0  0  0  0  0  0  0  0
    2.8449    2.3415   10.0868 C   0  0  0  0  0  0  0  0  0  0  0  0
    2.0391    1.4423   11.3263 Cl  0  0  0  0  0  0  0  0  0  0  0  0
    2.6841    1.9888    8.7660 C   0  0  0  0  0  0  0  0  0  0  0  0
    1.9009    0.9363    8.4533 F   0  0  0  0  0  0  0  0  0  0  0  0
    1.4295    2.1343    4.4443 C   0  0  0  0  0  0  0  0  0  0  0  0
    2.4436    1.7206    3.5508 C   0  0  0  0  0  0  0  0  0  0  0  0
    2.1310    1.4377    2.2518 C   0  0  0  0  0  0  0  0  0  0  0  0
    3.2199    0.9780    1.2961 C   0  0  0  0  0  0  0  0  0  0  0  0
    4.2555    2.0166    1.1971 N   0  0  0  0  0  0  0  0  0  0  0  0
    5.3085    1.5720    0.2728 C   0  0  0  0  0  0  0  0  0  0  0  0
    3.6552    3.2606    0.6941 C   0  0  0  0  0  0  0  0  0  0  0  0
    3.0527    3.0134   -0.6793 C   0  0  0  0  0  0  0  0  0  0  0  0
    2.0523    2.0101   -0.5836 O   0  0  0  0  0  0  0  0  0  0  0  0
    2.5664    3.7204    1.6499 C   0  0  0  0  0  0  0  0  0  0  0  0
    2.6687    5.0328    2.3040 N   0  0  0  0  0  0  0  0  0  0  0  0
    1.5675    2.9701    1.8834 O   0  0  0  0  0  0  0  0  0  0  0  0
    0.5802   -0.1968   -1.0408 H   0  0  0  0  0  0  0  0  0  0  0  0
    0.5802   -0.8671    0.5729 H   0  0  0  0  0  0  0  0  0  0  0  0
    2.0069   -0.0662   -0.0404 H   0  0  0  0  0  0  0  0  0  0  0  0
   -1.1860    2.0965    2.2651 H   0  0  0  0  0  0  0  0  0  0  0  0
   -1.3676    3.1635    6.7364 H   0  0  0  0  0  0  0  0  0  0  0  0
    3.7949    2.1095    5.7379 H   0  0  0  0  0  0  0  0  0  0  0  0
    4.5314    4.3554    7.3077 H   0  0  0  0  0  0  0  0  0  0  0  0
    4.8533    5.0175    9.6526 H   0  0  0  0  0  0  0  0  0  0  0  0
    3.7585    3.7076   11.4426 H   0  0  0  0  0  0  0  0  0  0  0  0
    3.4538    1.6294    3.8913 H   0  0  0  0  0  0  0  0  0  0  0  0
    3.6568    0.0725    1.6622 H   0  0  0  0  0  0  0  0  0  0  0  0
    2.7957    0.8039    0.3293 H   0  0  0  0  0  0  0  0  0  0  0  0
    4.8844    1.3979   -0.6940 H   0  0  0  0  0  0  0  0  0  0  0  0
    6.0623    2.3280    0.2007 H   0  0  0  0  0  0  0  0  0  0  0  0
    5.7454    0.6664    0.6389 H   0  0  0  0  0  0  0  0  0  0  0  0
    4.4090    4.0166    0.6221 H   0  0  0  0  0  0  0  0  0  0  0  0
    2.6158    3.9189   -1.0453 H   0  0  0  0  0  0  0  0  0  0  0  0
    3.8192    2.6898   -1.3520 H   0  0  0  0  0  0  0  0  0  0  0  0
    2.4606    1.1638   -0.2415 H   0  0  0  0  0  0  0  0  0  0  0  0
    1.9380    5.3413    2.9454 H   0  0  0  0  0  0  0  0  0  0  0  0
    3.4703    5.6350    2.1166 H   0  0  0  0  0  0  0  0  0  0  0  0
  1  2  1  0  0  0  0
  1 31  1  0  0  0  0
  1 32  1  0  0  0  0
  1 33  1  0  0  0  0
  2  3  1  0  0  0  0
  3  4  1  0  0  0  0
  3 21  2  0  0  0  0
  4  5  2  0  0  0  0
  4 34  1  0  0  0  0
  5  6  1  0  0  0  0
  5 19  1  0  0  0  0
  6  7  2  0  0  0  0
  7  8  1  0  0  0  0
  7 35  1  0  0  0  0
  8  9  2  0  0  0  0
  9 10  1  0  0  0  0
  9 19  1  0  0  0  0
 10 11  1  0  0  0  0
 10 36  1  0  0  0  0
 11 12  1  0  0  0  0
 11 17  2  0  0  0  0
 12 13  2  0  0  0  0
 12 37  1  0  0  0  0
 13 14  1  0  0  0  0
 13 38  1  0  0  0  0
 14 15  2  0  0  0  0
 14 39  1  0  0  0  0
 15 16  1  0  0  0  0
 15 17  1  0  0  0  0
 17 18  1  0  0  0  0
 19 20  2  0  0  0  0
 20 21  1  0  0  0  0
 20 40  1  0  0  0  0
 21 22  1  0  0  0  0
 22 23  1  0  0  0  0
 22 41  1  0  0  0  0
 22 42  1  0  0  0  0
 23 24  1  0  0  0  0
 23 25  1  0  0  0  0
 24 43  1  0  0  0  0
 24 44  1  0  0  0  0
 24 45  1  0  0  0  0
 25 26  1  0  0  0  0
 25 28  1  0  0  0  0
 25 46  1  0  0  0  0
 26 27  1  0  0  0  0
 26 47  1  0  0  0  0
 26 48  1  0  0  0  0
 27 49  1  0  0  0  0
 28 29  1  0  0  0  0
 28 30  2  0  0  0  0
 29 50  1  0  0  0  0
 29 51  1  0  0  0  0
M  END
