
 OpenBabel03132512083D

 47 50  0  0  0  0  0  0  0  0999 V2000
    0.9309   -0.0708   -0.0146 C   0  0  0  0  0  0  0  0  0  0  0  0
    0.4242    1.2659   -0.5312 C   0  0  0  0  0  0  0  0  0  0  0  0
   -0.3064    1.3101   -1.5701 O   0  0  0  0  0  0  0  0  0  0  0  0
    0.7794    2.5076    0.1709 N   0  0  0  0  0  0  0  0  0  0  0  0
   -0.0382    3.7257    0.6345 C   0  0  0  0  0  0  0  0  0  0  0  0
    1.2738    4.5253    0.5874 C   0  0  0  0  0  0  0  0  0  0  0  0
    1.5146    5.7267    1.4869 C   0  0  0  0  0  0  0  0  0  0  0  0
    2.8492    6.1823    1.3209 O   0  0  0  0  0  0  0  0  0  0  0  0
    3.9364    5.3152    1.6082 C   0  0  0  0  0  0  0  0  0  0  0  0
    5.0095    5.8066    2.3331 C   0  0  0  0  0  0  0  0  0  0  0  0
    6.1511    4.9711    2.3050 C   0  0  0  0  0  0  0  0  0  0  0  0
    6.1385    3.6972    1.9572 C   0  0  0  0  0  0  0  0  0  0  0  0
    7.3034    2.7711    2.2662 C   0  0  0  0  0  0  0  0  0  0  0  0
    7.6743    2.5819    3.5873 C   0  0  0  0  0  0  0  0  0  0  0  0
    8.9333    1.9559    3.7453 C   0  0  0  0  0  0  0  0  0  0  0  0
    9.5789    2.0637    5.0282 C   0  0  0  0  0  0  0  0  0  0  0  0
    8.9064    2.8303    6.1554 C   0  0  0  0  0  0  0  0  0  0  0  0
    9.4761    2.9254    7.2874 O   0  0  0  0  0  0  0  0  0  0  0  0
    7.6417    3.4401    5.9435 O   0  0  0  0  0  0  0  0  0  0  0  0
   10.8616    1.4451    5.2430 C   0  0  0  0  0  0  0  0  0  0  0  0
   10.6247    0.4314    3.0840 N   0  0  0  0  0  0  0  0  0  0  0  0
    9.5576    1.2797    2.7982 C   0  0  0  0  0  0  0  0  0  0  0  0
    9.1001    1.4570    1.5220 C   0  0  0  0  0  0  0  0  0  0  0  0
    7.9493    2.1662    1.2761 C   0  0  0  0  0  0  0  0  0  0  0  0
    7.3184    2.2753   -0.3848 Cl  0  0  0  0  0  0  0  0  0  0  0  0
    5.0211    3.2562    1.3041 C   0  0  0  0  0  0  0  0  0  0  0  0
    3.9138    4.0596    1.1768 C   0  0  0  0  0  0  0  0  0  0  0  0
    2.0072    3.1909    0.8007 C   0  0  0  0  0  0  0  0  0  0  0  0
    0.5742   -0.8562   -0.6477 H   0  0  0  0  0  0  0  0  0  0  0  0
    0.5742   -0.2264    0.9821 H   0  0  0  0  0  0  0  0  0  0  0  0
    2.0009   -0.0708   -0.0146 H   0  0  0  0  0  0  0  0  0  0  0  0
   -0.9170    4.0483    0.1163 H   0  0  0  0  0  0  0  0  0  0  0  0
   -0.4699    3.6307    1.6089 H   0  0  0  0  0  0  0  0  0  0  0  0
    1.4742    5.0011   -0.3498 H   0  0  0  0  0  0  0  0  0  0  0  0
    0.8349    6.5104    1.2249 H   0  0  0  0  0  0  0  0  0  0  0  0
    1.3582    5.4452    2.5073 H   0  0  0  0  0  0  0  0  0  0  0  0
    4.9780    6.7340    2.8660 H   0  0  0  0  0  0  0  0  0  0  0  0
    7.0899    5.4014    2.5850 H   0  0  0  0  0  0  0  0  0  0  0  0
    7.0640    2.8820    4.4134 H   0  0  0  0  0  0  0  0  0  0  0  0
    7.1993    3.9445    6.6851 H   0  0  0  0  0  0  0  0  0  0  0  0
   11.3413    1.5252    6.1962 H   0  0  0  0  0  0  0  0  0  0  0  0
   11.0873   -0.0779    2.3309 H   0  0  0  0  0  0  0  0  0  0  0  0
    9.6461    1.0374    0.7030 H   0  0  0  0  0  0  0  0  0  0  0  0
    5.0089    2.2712    0.8862 H   0  0  0  0  0  0  0  0  0  0  0  0
    3.0251    3.6699    0.7259 H   0  0  0  0  0  0  0  0  0  0  0  0
    2.3889    2.9005    1.7572 H   0  0  0  0  0  0  0  0  0  0  0  0
    2.9143    3.0841    0.2434 H   0  0  0  0  0  0  0  0  0  0  0  0
  1  2  1  0  0  0  0
  1 29  1  0  0  0  0
  1 30  1  0  0  0  0
  1 31  1  0  0  0  0
  2  3  2  0  0  0  0
  2  4  1  0  0  0  0
  4  5  1  0  0  0  0
  4 28  1  0  0  0  0
  5  6  1  0  0  0  0
  5 32  1  0  0  0  0
  5 33  1  0  0  0  0
  6  7  1  0  0  0  0
  6 28  1  0  0  0  0
  6 34  1  0  0  0  0
  7  8  1  0  0  0  0
  7 35  1  0  0  0  0
  7 36  1  0  0  0  0
  8  9  1  0  0  0  0
  9 10  1  0  0  0  0
  9 27  2  0  0  0  0
 10 11  2  0  0  0  0
 10 37  1  0  0  0  0
 11 12  1  0  0  0  0
 11 38  1  0  0  0  0
 12 13  1  0  0  0  0
 12 26  2  0  0  0  0
 13 14  1  0  0  0  0
 13 24  2  0  0  0  0
 14 15  2  0  0  0  0
 14 39  1  0  0  0  0
 15 16  1  0  0  0  0
 15 22  1  0  0  0  0
 16 17  1  0  0  0  0
 16 20  2  0  0  0  0
 17 18  2  0  0  0  0
 17 19  1  0  0  0  0
 19 40  1  0  0  0  0
 20 21  1  0  0  0  0
 20 41  1  0  0  0  0
 21 22  1  0  0  0  0
 21 42  1  0  0  0  0
 22 23  2  0  0  0  0
 23 24  1  0  0  0  0
 23 43  1  0  0  0  0
 24 25  1  0  0  0  0
 26 27  1  0  0  0  0
 26 44  1  0  0  0  0
 27 45  1  0  0  0  0
 28 46  1  0  0  0  0
 28 47  1  0  0  0  0
M  END
