REMARK  Name = 
REMARK  12 active torsions:
REMARK  status: ('A' for Active; 'I' for Inactive)
REMARK    1  A    between atoms: C_1  and  O_2
REMARK    2  A    between atoms: O_2  and  C_3
REMARK    3  A    between atoms: C_3  and  C_4
REMARK    4  A    between atoms: C_4  and  C_5
REMARK    5  A    between atoms: C_5  and  C_6
REMARK    6  A    between atoms: C_5  and  N_9
REMARK    7  A    between atoms: N_9  and  C_10
REMARK    8  A    between atoms: N_9  and  C_11
REMARK    9  A    between atoms: C_11  and  C_12
REMARK   10  A    between atoms: N_16  and  C_17
REMARK   11  A    between atoms: C_30  and  O_31
REMARK   12  A    between atoms: O_31  and  C_32
REMARK                            x       y       z     vdW  Elec       q    Type
REMARK                         _______ _______ _______ _____ _____    ______ ____
ROOT
ATOM      1  C   UNL     1       2.443   4.656  -1.160  0.00  0.00    +0.000 A 
ATOM      2  C   UNL     1       3.122   3.471  -1.160  0.00  0.00    +0.000 A 
ATOM      3  C   UNL     1       4.535   3.469  -1.145  0.00  0.00    +0.000 A 
ATOM      4  C   UNL     1       5.330   2.288  -1.143  0.00  0.00    +0.000 A 
ATOM      5  N   UNL     1       4.664   0.979  -1.192  0.00  0.00    +0.000 N 
ATOM      6  N   UNL     1       6.640   2.336  -1.100  0.00  0.00    +0.000 NA
ATOM      7  C   UNL     1       7.222   3.574  -1.079  0.00  0.00    +0.000 A 
ATOM      8  N   UNL     1       6.612   4.727  -1.101  0.00  0.00    +0.000 NA
ATOM      9  C   UNL     1       5.241   4.693  -1.132  0.00  0.00    +0.000 A 
ATOM     10  C   UNL     1       4.510   5.902  -1.160  0.00  0.00    +0.000 A 
ATOM     11  C   UNL     1       3.143   5.878  -1.160  0.00  0.00    +0.000 A 
ATOM     12  H   UNL     1       3.646   0.925  -1.227  0.00  0.00    +0.000 HD
ENDROOT
BRANCH   5  13
ATOM     13  C   UNL     1       5.465  -0.254  -1.191  0.00  0.00    +0.000 A 
ATOM     14  C   UNL     1       5.383  -1.145  -2.241  0.00  0.00    +0.000 A 
ATOM     15  C   UNL     1       6.137  -2.312  -2.254  0.00  0.00    +0.000 A 
ATOM     16  C   UNL     1       6.988  -2.578  -1.182  0.00  0.00    +0.000 A 
ATOM     17  C   UNL     1       7.069  -1.684  -0.131  0.00  0.00    +0.000 A 
ATOM     18 CL   UNL     1       8.153  -1.984   1.183  0.00  0.00    +0.000 Cl
ATOM     19  C   UNL     1       6.307  -0.538  -0.146  0.00  0.00    +0.000 A 
ATOM     20  F   UNL     1       6.410   0.338   0.874  0.00  0.00    +0.000 F 
ENDBRANCH   5  13
BRANCH  11  21
ATOM     21  O   UNL     1       2.420   7.101  -1.159  0.00  0.00    +0.000 OA
ATOM     22  C   UNL     1       1.000   7.086  -1.159  0.00  0.00    +0.000 C 
ENDBRANCH  11  21
BRANCH   1  23
ATOM     23  C   UNL     1       0.923   4.656  -1.160  0.00  0.00    +0.000 C 
BRANCH  23  24
ATOM     24  N   UNL     1       0.433   3.701  -0.156  0.00  0.00    +0.000 NA
ATOM     25  C   UNL     1       0.923   4.093   1.174  0.00  0.00    +0.000 C 
BRANCH  24  26
ATOM     26  C   UNL     1       0.923   2.354  -0.481  0.00  0.00    +0.000 C 
BRANCH  26  27
ATOM     27  C   UNL     1       2.443   2.354  -0.481  0.00  0.00    +0.000 C 
ATOM     28  N   UNL     1       3.178   3.591  -0.182  0.00  0.00    +0.000 N 
ATOM     29  O   UNL     1       3.079   1.284  -0.739  0.00  0.00    +0.000 OA
ATOM     30  H   UNL     1       4.198   3.591  -0.182  0.00  0.00    +0.000 HD
ATOM     31  H   UNL     1       2.668   4.450   0.025  0.00  0.00    +0.000 HD
ENDBRANCH  26  27
BRANCH  26  32
ATOM     32  C   UNL     1       0.416   1.948  -1.855  0.00  0.00    +0.000 C 
BRANCH  32  33
ATOM     33  C   UNL     1       0.923   0.555  -2.191  0.00  0.00    +0.000 C 
BRANCH  33  35
ATOM     34  C   UNL     1       0.923   0.011   0.063  0.00  0.00    +0.000 C 
ATOM     35  O   UNL     1       0.450  -0.367  -1.221  0.00  0.00    +0.000 OA
ENDBRANCH  33  35
ENDBRANCH  32  33
ENDBRANCH  26  32
ENDBRANCH  24  26
ENDBRANCH  23  24
ENDBRANCH   1  23
TORSDOF 9
