REMARK  Name = 
REMARK  12 active torsions:
REMARK  status: ('A' for Active; 'I' for Inactive)
REMARK    1  A    between atoms: C_1  and  C_2
REMARK    2  A    between atoms: C_2  and  C_3
REMARK    3  A    between atoms: C_2  and  C_4
REMARK    4  A    between atoms: C_2  and  C_5
REMARK    5  A    between atoms: N_11  and  C_12
REMARK    6  A    between atoms: C_12  and  C_13
REMARK    7  A    between atoms: C_16  and  C_17
REMARK    8  A    between atoms: C_21  and  C_23
REMARK    9  A    between atoms: C_26  and  O_27
REMARK   10  A    between atoms: O_27  and  C_28
REMARK   11  A    between atoms: C_28  and  C_29
REMARK   12  A    between atoms: C_29  and  N_30
REMARK                            x       y       z     vdW  Elec       q    Type
REMARK                         _______ _______ _______ _____ _____    ______ ____
ROOT
ATOM      1  C   UNL     1       6.495  -3.787   6.148  0.00  0.00    +0.000 A 
ATOM      2  C   UNL     1       6.067  -3.116   7.235  0.00  0.00    +0.000 A 
ATOM      3  C   UNL     1       7.174  -3.046   8.110  0.00  0.00    +0.000 A 
ATOM      4  N   UNL     1       7.157  -2.390   9.425  0.00  0.00    +0.000 N 
ATOM      5  C   UNL     1       8.370  -2.378  10.255  0.00  0.00    +0.000 C 
ATOM      6  O   UNL     1       8.355  -1.811  11.393  0.00  0.00    +0.000 OA
ATOM      7  N   UNL     1       8.227  -3.651   7.586  0.00  0.00    +0.000 NA
ATOM      8  N   UNL     1       7.800  -4.103   6.369  0.00  0.00    +0.000 N 
ATOM      9  H   UNL     1       6.304  -1.944   9.761  0.00  0.00    +0.000 HD
ATOM     10  H   UNL     1       8.386  -4.613   5.709  0.00  0.00    +0.000 HD
ENDROOT
BRANCH   1  14
ATOM     11  C   UNL     1       4.458  -4.644   2.493  0.00  0.00    +0.000 A 
ATOM     12  C   UNL     1       5.021  -5.692   3.202  0.00  0.00    +0.000 A 
ATOM     13  C   UNL     1       5.474  -5.333   4.493  0.00  0.00    +0.000 A 
ATOM     14  C   UNL     1       5.698  -4.094   4.890  0.00  0.00    +0.000 A 
ATOM     15  C   UNL     1       5.173  -3.101   4.110  0.00  0.00    +0.000 A 
ATOM     16  C   UNL     1       4.598  -3.387   2.895  0.00  0.00    +0.000 A 
BRANCH  11  17
ATOM     17  C   UNL     1       3.634  -4.935   1.249  0.00  0.00    +0.000 C 
BRANCH  17  24
ATOM     18  C   UNL     1       1.059  -2.060   1.235  0.00  0.00    +0.000 A 
ATOM     19  C   UNL     1       0.274  -3.169   1.240  0.00  0.00    +0.000 A 
ATOM     20  C   UNL     1       1.185  -4.238   1.242  0.00  0.00    +0.000 A 
ATOM     21  N   UNL     1       0.783  -5.652   1.240  0.00  0.00    +0.000 N 
ATOM     22  C   UNL     1       1.806  -6.707   1.242  0.00  0.00    +0.000 C 
ATOM     23  O   UNL     1       1.458  -7.929   1.240  0.00  0.00    +0.000 OA
ATOM     24  N   UNL     1       3.232  -6.348   1.247  0.00  0.00    +0.000 N 
ATOM     25  N   UNL     1       2.438  -3.836   1.246  0.00  0.00    +0.000 NA
ATOM     26  O   UNL     1       2.365  -2.429   1.251  0.00  0.00    +0.000 OA
ATOM     27  H   UNL     1      -0.206  -5.901   1.236  0.00  0.00    +0.000 HD
ATOM     28  H   UNL     1       3.942  -7.081   1.248  0.00  0.00    +0.000 HD
BRANCH  18  30
ATOM     29  C   UNL     1       1.059   0.073  -0.034  0.00  0.00    +0.000 C 
ATOM     30  C   UNL     1       0.552  -0.627   1.216  0.00  0.00    +0.000 C 
ATOM     31  C   UNL     1       1.059   0.106   2.448  0.00  0.00    +0.000 C 
ATOM     32  C   UNL     1      -0.968  -0.627   1.216  0.00  0.00    +0.000 C 
ENDBRANCH  18  30
ENDBRANCH  17  24
ENDBRANCH  11  17
ENDBRANCH   1  14
BRANCH   5  33
ATOM     33  C   UNL     1       9.641  -3.043   9.754  0.00  0.00    +0.000 A 
ATOM     34  C   UNL     1      10.347  -3.859  10.623  0.00  0.00    +0.000 A 
ATOM     35  C   UNL     1      11.640  -4.204  10.164  0.00  0.00    +0.000 A 
ATOM     36  C   UNL     1      12.042  -4.098   8.911  0.00  0.00    +0.000 A 
ATOM     37  C   UNL     1      11.265  -3.334   8.085  0.00  0.00    +0.000 A 
ATOM     38  C   UNL     1      10.049  -2.852   8.505  0.00  0.00    +0.000 A 
BRANCH  36  39
ATOM     39  O   UNL     1      13.219  -4.744   8.446  0.00  0.00    +0.000 OA
BRANCH  39  40
ATOM     40  C   UNL     1      13.616  -4.604   7.090  0.00  0.00    +0.000 C 
BRANCH  40  41
ATOM     41  C   UNL     1      12.520  -5.140   6.183  0.00  0.00    +0.000 C 
BRANCH  41  42
ATOM     42  N   UNL     1      11.281  -4.383   6.410  0.00  0.00    +0.000 NA
ATOM     43  C   UNL     1      10.564  -5.669   6.464  0.00  0.00    +0.000 C 
ATOM     44  C   UNL     1      10.801  -6.430   5.179  0.00  0.00    +0.000 C 
ATOM     45  O   UNL     1      10.381  -5.667   4.048  0.00  0.00    +0.000 OA
ATOM     46  C   UNL     1      11.111  -4.441   3.991  0.00  0.00    +0.000 C 
ATOM     47  C   UNL     1      10.865  -3.600   5.229  0.00  0.00    +0.000 C 
ENDBRANCH  41  42
ENDBRANCH  40  41
ENDBRANCH  39  40
ENDBRANCH  36  39
ENDBRANCH   5  33
TORSDOF 9
