
 OpenBabel03132514253D

 36 39  0  0  0  0  0  0  0  0999 V2000
    1.0074   -0.0510    0.0857 N   0  0  0  0  0  0  0  0  0  0  0  0
    0.5174    1.3318    0.1789 C   0  0  0  0  0  0  0  0  0  0  0  0
    1.0241    2.1302   -1.0113 C   0  0  0  0  0  0  0  0  0  0  0  0
    1.7196    1.5468   -2.0574 C   0  0  0  0  0  0  0  0  0  0  0  0
    2.2129    2.4740   -3.0055 C   0  0  0  0  0  0  0  0  0  0  0  0
    1.7836    3.7165   -3.1315 C   0  0  0  0  0  0  0  0  0  0  0  0
    2.0847    4.5230   -4.3230 N   0  0  0  0  0  0  0  0  0  0  0  0
    1.8878    4.1117   -5.5590 C   0  0  0  0  0  0  0  0  0  0  0  0
    1.1637    2.8310   -5.9410 C   0  0  0  0  0  0  0  0  0  0  0  0
    1.8145    1.4844   -6.9134 N   0  0  0  0  0  0  0  0  0  0  0  0
    0.4032    0.4779   -6.9434 O   0  0  0  0  0  0  0  0  0  0  0  0
   -0.5030    1.1917   -6.2225 N   0  0  0  0  0  0  0  0  0  0  0  0
   -0.1329    2.4020   -5.6920 C   0  0  0  0  0  0  0  0  0  0  0  0
   -1.0683    3.2086   -4.8950 N   0  0  0  0  0  0  0  0  0  0  0  0
    2.4093    4.9707   -6.4225 N   0  0  0  0  0  0  0  0  0  0  0  0
    2.9627    5.9744   -5.7436 C   0  0  0  0  0  0  0  0  0  0  0  0
    3.6512    7.1549   -6.0935 C   0  0  0  0  0  0  0  0  0  0  0  0
    4.0911    7.9791   -5.1179 N   0  0  0  0  0  0  0  0  0  0  0  0
    3.8925    7.6956   -3.8037 C   0  0  0  0  0  0  0  0  0  0  0  0
    3.2353    6.5823   -3.4091 C   0  0  0  0  0  0  0  0  0  0  0  0
    2.7529    5.6870   -4.3657 C   0  0  0  0  0  0  0  0  0  0  0  0
    1.0439    4.2124   -2.0940 C   0  0  0  0  0  0  0  0  0  0  0  0
    0.6347    3.3985   -1.0654 C   0  0  0  0  0  0  0  0  0  0  0  0
    0.6674   -0.4747   -0.7775 H   0  0  0  0  0  0  0  0  0  0  0  0
    2.0274   -0.0510    0.0857 H   0  0  0  0  0  0  0  0  0  0  0  0
   -0.5526    1.3318    0.1789 H   0  0  0  0  0  0  0  0  0  0  0  0
    0.8741    1.7764    1.0844 H   0  0  0  0  0  0  0  0  0  0  0  0
    1.8703    0.4907   -2.1410 H   0  0  0  0  0  0  0  0  0  0  0  0
    2.9877    2.1457   -3.6664 H   0  0  0  0  0  0  0  0  0  0  0  0
   -2.0161    2.8718   -4.7258 H   0  0  0  0  0  0  0  0  0  0  0  0
   -0.7696    4.1052   -4.5111 H   0  0  0  0  0  0  0  0  0  0  0  0
    3.8235    7.3950   -7.1218 H   0  0  0  0  0  0  0  0  0  0  0  0
    4.2659    8.3709   -3.0624 H   0  0  0  0  0  0  0  0  0  0  0  0
    3.0853    6.3879   -2.3676 H   0  0  0  0  0  0  0  0  0  0  0  0
    0.7799    5.2493   -2.0829 H   0  0  0  0  0  0  0  0  0  0  0  0
   -0.0036    3.7902   -0.3012 H   0  0  0  0  0  0  0  0  0  0  0  0
  1  2  1  0  0  0  0
  1 24  1  0  0  0  0
  1 25  1  0  0  0  0
  2  3  1  0  0  0  0
  2 26  1  0  0  0  0
  2 27  1  0  0  0  0
  3  4  1  0  0  0  0
  3 23  2  0  0  0  0
  4  5  2  0  0  0  0
  4 28  1  0  0  0  0
  5  6  1  0  0  0  0
  5 29  1  0  0  0  0
  6  7  1  0  0  0  0
  6 22  2  0  0  0  0
  7  8  1  0  0  0  0
  7 21  1  0  0  0  0
  8  9  1  0  0  0  0
  8 15  2  0  0  0  0
  9 10  2  0  0  0  0
  9 13  1  0  0  0  0
 10 11  1  0  0  0  0
 11 12  1  0  0  0  0
 12 13  2  0  0  0  0
 13 14  1  0  0  0  0
 14 30  1  0  0  0  0
 14 31  1  0  0  0  0
 15 16  1  0  0  0  0
 16 17  1  0  0  0  0
 16 21  2  0  0  0  0
 17 18  2  0  0  0  0
 17 32  1  0  0  0  0
 18 19  1  0  0  0  0
 19 20  2  0  0  0  0
 19 33  1  0  0  0  0
 20 21  1  0  0  0  0
 20 34  1  0  0  0  0
 22 23  1  0  0  0  0
 22 35  1  0  0  0  0
 23 36  1  0  0  0  0
M  END
