REMARK  Name = 
REMARK  5 active torsions:
REMARK  status: ('A' for Active; 'I' for Inactive)
REMARK    1  A    between atoms: C_2  and  O_3
REMARK    2  A    between atoms: C_2  and  C_4
REMARK    3  A    between atoms: C_11  and  C_12
REMARK    4  A    between atoms: C_15  and  C_16
REMARK    5  A    between atoms: C_16  and  O_17
REMARK                            x       y       z     vdW  Elec       q    Type
REMARK                         _______ _______ _______ _____ _____    ______ ____
ROOT
ATOM      1  C   UNL     1       3.110   0.425   1.213  0.00  0.00    +0.000 A 
ATOM      2  N   UNL     1       4.094   1.273   1.270  0.00  0.00    +0.000 NA
ATOM      3  N   UNL     1       4.515   1.438   2.593  0.00  0.00    +0.000 N 
ATOM      4  C   UNL     1       3.741   0.639   3.411  0.00  0.00    +0.000 A 
ATOM      5  C   UNL     1       3.717   0.409   4.782  0.00  0.00    +0.000 A 
ATOM      6  C   UNL     1       2.797  -0.465   5.316  0.00  0.00    +0.000 A 
ATOM      7 CL   UNL     1       2.762  -0.744   7.074  0.00  0.00    +0.000 Cl
ATOM      8  C   UNL     1       1.893  -1.134   4.491  0.00  0.00    +0.000 A 
ATOM      9  C   UNL     1       1.902  -0.917   3.127  0.00  0.00    +0.000 A 
ATOM     10  C   UNL     1       2.828  -0.027   2.575  0.00  0.00    +0.000 A 
ATOM     11  H   UNL     1       5.270   2.048   2.903  0.00  0.00    +0.000 HD
ENDROOT
BRANCH   8  12
ATOM     12  C   UNL     1       0.893  -2.106   5.096  0.00  0.00    +0.000 A 
ATOM     13  C   UNL     1      -0.027  -1.604   6.058  0.00  0.00    +0.000 A 
ATOM     14  C   UNL     1      -0.783  -2.506   6.824  0.00  0.00    +0.000 A 
ATOM     15  C   UNL     1      -0.850  -3.758   6.478  0.00  0.00    +0.000 A 
ATOM     16  C   UNL     1      -0.176  -4.207   5.335  0.00  0.00    +0.000 A 
ATOM     17  C   UNL     1       0.817  -3.389   4.741  0.00  0.00    +0.000 A 
BRANCH  15  18
ATOM     18  C   UNL     1      -1.659  -4.735   7.315  0.00  0.00    +0.000 C 
ATOM     19  C   UNL     1      -3.015  -5.344   6.918  0.00  0.00    +0.000 C 
ATOM     20  C   UNL     1      -3.494  -5.208   8.373  0.00  0.00    +0.000 C 
ATOM     21  C   UNL     1      -2.376  -4.182   8.599  0.00  0.00    +0.000 C 
BRANCH  18  22
ATOM     22  O   UNL     1      -0.756  -5.722   7.762  0.00  0.00    +0.000 OA
ATOM     23  H   UNL     1      -1.244  -6.393   8.320  0.00  0.00    +0.000 HD
ENDBRANCH  18  22
ENDBRANCH  15  18
ENDBRANCH   8  12
BRANCH   1  25
ATOM     24  O   UNL     1       1.079   0.042  -0.046  0.00  0.00    +0.000 OA
ATOM     25  C   UNL     1       2.349   0.042  -0.046  0.00  0.00    +0.000 C 
BRANCH  25  26
ATOM     26  O   UNL     1       3.059  -0.317  -1.222  0.00  0.00    +0.000 OA
ATOM     27  H   UNL     1       4.059  -0.317  -1.222  0.00  0.00    +0.000 HD
ENDBRANCH  25  26
ENDBRANCH   1  25
TORSDOF 5
