
 OpenBabel03132512093D

 60 64  0  0  0  0  0  0  0  0999 V2000
    0.9464    0.0628   -0.0564 C   0  0  0  0  0  0  0  0  0  0  0  0
    0.4731    0.6497    1.1469 O   0  0  0  0  0  0  0  0  0  0  0  0
    0.8161    0.0758    2.3996 C   0  0  0  0  0  0  0  0  0  0  0  0
   -0.1317    0.0488    3.4094 C   0  0  0  0  0  0  0  0  0  0  0  0
    0.4147   -0.1153    4.7042 C   0  0  0  0  0  0  0  0  0  0  0  0
    1.6325   -0.5620    4.9522 C   0  0  0  0  0  0  0  0  0  0  0  0
    2.0450   -1.0369    6.3359 C   0  0  0  0  0  0  0  0  0  0  0  0
    1.3847   -1.9670    7.0774 C   0  0  0  0  0  0  0  0  0  0  0  0
    1.9602   -2.1005    8.3288 N   0  0  0  0  0  0  0  0  0  0  0  0
    3.0157   -1.2075    8.4021 C   0  0  0  0  0  0  0  0  0  0  0  0
    3.7759   -1.0315    9.4810 N   0  0  0  0  0  0  0  0  0  0  0  0
    4.7043   -0.0794    9.3442 C   0  0  0  0  0  0  0  0  0  0  0  0
    4.8673    0.6955    8.1951 C   0  0  0  0  0  0  0  0  0  0  0  0
    5.9303    1.7814    8.1576 C   0  0  0  0  0  0  0  0  0  0  0  0
    5.5435    3.0941    7.9437 C   0  0  0  0  0  0  0  0  0  0  0  0
    6.6158    3.9652    7.6383 C   0  0  0  0  0  0  0  0  0  0  0  0
    7.8875    3.6992    7.8750 C   0  0  0  0  0  0  0  0  0  0  0  0
    8.9516    4.7843    7.8463 C   0  0  0  0  0  0  0  0  0  0  0  0
    8.6270    5.9858    7.5893 O   0  0  0  0  0  0  0  0  0  0  0  0
   10.3560    4.4438    8.1158 N   0  0  0  0  0  0  0  0  0  0  0  0
   11.1299    3.4863    7.3047 C   0  0  0  0  0  0  0  0  0  0  0  0
   11.6487    2.3791    8.1944 C   0  0  0  0  0  0  0  0  0  0  0  0
   12.4497    2.9054    9.2524 O   0  0  0  0  0  0  0  0  0  0  0  0
   11.6753    3.8027   10.0483 C   0  0  0  0  0  0  0  0  0  0  0  0
   11.1761    4.9741    9.2237 C   0  0  0  0  0  0  0  0  0  0  0  0
    8.1956    2.3951    8.1472 C   0  0  0  0  0  0  0  0  0  0  0  0
    9.6050    1.9892    8.2462 N   0  0  0  0  0  0  0  0  0  0  0  0
    7.2068    1.4587    8.3296 C   0  0  0  0  0  0  0  0  0  0  0  0
    4.0643    0.4782    7.0905 C   0  0  0  0  0  0  0  0  0  0  0  0
    3.0986   -0.5147    7.1768 C   0  0  0  0  0  0  0  0  0  0  0  0
    2.5022   -0.5744    3.8972 C   0  0  0  0  0  0  0  0  0  0  0  0
    2.0708   -0.2973    2.6225 C   0  0  0  0  0  0  0  0  0  0  0  0
    2.9750   -0.4111    1.5334 O   0  0  0  0  0  0  0  0  0  0  0  0
    2.5359   -0.1264    0.2134 C   0  0  0  0  0  0  0  0  0  0  0  0
    0.5897    0.6269   -0.8927 H   0  0  0  0  0  0  0  0  0  0  0  0
    0.5897   -0.9435   -0.1268 H   0  0  0  0  0  0  0  0  0  0  0  0
    2.0164    0.0628   -0.0564 H   0  0  0  0  0  0  0  0  0  0  0  0
   -1.1817    0.1435    3.2268 H   0  0  0  0  0  0  0  0  0  0  0  0
   -0.2016    0.1404    5.5407 H   0  0  0  0  0  0  0  0  0  0  0  0
    0.5344   -2.5211    6.7384 H   0  0  0  0  0  0  0  0  0  0  0  0
    1.6608   -2.7408    9.0642 H   0  0  0  0  0  0  0  0  0  0  0  0
    5.3640    0.0997   10.1674 H   0  0  0  0  0  0  0  0  0  0  0  0
    4.5260    3.4198    8.0038 H   0  0  0  0  0  0  0  0  0  0  0  0
    6.3800    4.9048    7.1840 H   0  0  0  0  0  0  0  0  0  0  0  0
   11.9537    3.9912    6.8449 H   0  0  0  0  0  0  0  0  0  0  0  0
   10.5001    3.0697    6.5466 H   0  0  0  0  0  0  0  0  0  0  0  0
   10.8130    1.8661    8.6226 H   0  0  0  0  0  0  0  0  0  0  0  0
   12.2407    1.7076    7.6082 H   0  0  0  0  0  0  0  0  0  0  0  0
   12.2954    4.1807   10.8342 H   0  0  0  0  0  0  0  0  0  0  0  0
   10.8355    3.2763   10.4514 H   0  0  0  0  0  0  0  0  0  0  0  0
   12.0030    5.5319    8.8365 H   0  0  0  0  0  0  0  0  0  0  0  0
   10.5829    5.6210    9.8357 H   0  0  0  0  0  0  0  0  0  0  0  0
   10.3448    2.6784    8.1121 H   0  0  0  0  0  0  0  0  0  0  0  0
    9.8430    1.0183    8.4490 H   0  0  0  0  0  0  0  0  0  0  0  0
    7.4678    0.4604    8.6128 H   0  0  0  0  0  0  0  0  0  0  0  0
    4.1835    1.0568    6.1984 H   0  0  0  0  0  0  0  0  0  0  0  0
    3.5337   -0.8030    4.0669 H   0  0  0  0  0  0  0  0  0  0  0  0
    1.7345   -0.7861   -0.0460 H   0  0  0  0  0  0  0  0  0  0  0  0
    2.1950    0.8865    0.1616 H   0  0  0  0  0  0  0  0  0  0  0  0
    3.3474   -0.2650   -0.4701 H   0  0  0  0  0  0  0  0  0  0  0  0
  1  2  1  0  0  0  0
  1 35  1  0  0  0  0
  1 36  1  0  0  0  0
  1 37  1  0  0  0  0
  2  3  1  0  0  0  0
  3  4  1  0  0  0  0
  3 32  2  0  0  0  0
  4  5  2  0  0  0  0
  4 38  1  0  0  0  0
  5  6  1  0  0  0  0
  5 39  1  0  0  0  0
  6  7  1  0  0  0  0
  6 31  2  0  0  0  0
  7  8  2  0  0  0  0
  7 30  1  0  0  0  0
  8  9  1  0  0  0  0
  8 40  1  0  0  0  0
  9 10  1  0  0  0  0
  9 41  1  0  0  0  0
 10 11  1  0  0  0  0
 10 30  2  0  0  0  0
 11 12  2  0  0  0  0
 12 13  1  0  0  0  0
 12 42  1  0  0  0  0
 13 14  1  0  0  0  0
 13 29  2  0  0  0  0
 14 15  1  0  0  0  0
 14 28  2  0  0  0  0
 15 16  2  0  0  0  0
 15 43  1  0  0  0  0
 16 17  1  0  0  0  0
 16 44  1  0  0  0  0
 17 18  1  0  0  0  0
 17 26  2  0  0  0  0
 18 19  2  0  0  0  0
 18 20  1  0  0  0  0
 20 21  1  0  0  0  0
 20 25  1  0  0  0  0
 21 22  1  0  0  0  0
 21 45  1  0  0  0  0
 21 46  1  0  0  0  0
 22 23  1  0  0  0  0
 22 47  1  0  0  0  0
 22 48  1  0  0  0  0
 23 24  1  0  0  0  0
 24 25  1  0  0  0  0
 24 49  1  0  0  0  0
 24 50  1  0  0  0  0
 25 51  1  0  0  0  0
 25 52  1  0  0  0  0
 26 27  1  0  0  0  0
 26 28  1  0  0  0  0
 27 53  1  0  0  0  0
 27 54  1  0  0  0  0
 28 55  1  0  0  0  0
 29 30  1  0  0  0  0
 29 56  1  0  0  0  0
 31 32  1  0  0  0  0
 31 57  1  0  0  0  0
 32 33  1  0  0  0  0
 33 34  1  0  0  0  0
 34 58  1  0  0  0  0
 34 59  1  0  0  0  0
 34 60  1  0  0  0  0
M  END
