REMARK  Name = 
REMARK  14 active torsions:
REMARK  status: ('A' for Active; 'I' for Inactive)
REMARK    1  A    between atoms: C_1  and  O_2
REMARK    2  A    between atoms: O_2  and  C_3
REMARK    3  A    between atoms: C_5  and  S_6
REMARK    4  A    between atoms: S_6  and  C_7
REMARK    5  A    between atoms: C_10  and  O_11
REMARK    6  A    between atoms: O_11  and  C_12
REMARK    7  A    between atoms: C_14  and  C_15
REMARK    8  A    between atoms: C_15  and  C_16
REMARK    9  A    between atoms: C_21  and  N_22
REMARK   10  A    between atoms: C_23  and  C_24
REMARK   11  A    between atoms: C_26  and  O_27
REMARK   12  A    between atoms: O_27  and  C_28
REMARK   13  A    between atoms: C_28  and  C_29
REMARK   14  A    between atoms: C_28  and  C_30
REMARK                            x       y       z     vdW  Elec       q    Type
REMARK                         _______ _______ _______ _____ _____    ______ ____
ROOT
ATOM      1  C   UNL     1       4.300  -2.467  -0.314  0.00  0.00    +0.000 C 
ATOM      2  O   UNL     1       5.478  -2.434  -0.788  0.00  0.00    +0.000 OA
ATOM      3  N   UNL     1       3.994  -3.330   0.837  0.00  0.00    +0.000 N 
ATOM      4  C   UNL     1       2.631  -3.368   1.385  0.00  0.00    +0.000 A 
ATOM      5  C   UNL     1       2.425  -3.314   2.749  0.00  0.00    +0.000 A 
ATOM      6  C   UNL     1       1.201  -3.348   3.251  0.00  0.00    +0.000 A 
ATOM      7  C   UNL     1       0.135  -3.427   2.472  0.00  0.00    +0.000 A 
ATOM      8  C   UNL     1       0.266  -3.485   1.098  0.00  0.00    +0.000 A 
ATOM      9  N   UNL     1       1.535  -3.458   0.539  0.00  0.00    +0.000 NA
ATOM     10  H   UNL     1       4.728  -3.903   1.254  0.00  0.00    +0.000 HD
ENDROOT
BRANCH   6  11
ATOM     11  N   UNL     1       1.021  -3.295   4.709  0.00  0.00    +0.000 N 
ATOM     12  H   UNL     1       1.835  -3.234   5.321  0.00  0.00    +0.000 HD
ATOM     13  H   UNL     1       0.083  -3.321   5.109  0.00  0.00    +0.000 HD
ENDBRANCH   6  11
BRANCH   7  14
ATOM     14  C   UNL     1      -1.251  -3.456   3.096  0.00  0.00    +0.000 C 
ATOM     15  N   UNL     1      -2.401  -3.479   3.614  0.00  0.00    +0.000 NA
ENDBRANCH   7  14
BRANCH   1  16
ATOM     16  C   UNL     1       3.206  -1.614  -0.935  0.00  0.00    +0.000 C 
BRANCH  16  22
ATOM     17  C   UNL     1       0.860  -2.369  -0.949  0.00  0.00    +0.000 A 
ATOM     18  C   UNL     1      -0.213  -3.058  -1.489  0.00  0.00    +0.000 A 
ATOM     19  C   UNL     1       0.160  -4.104  -2.365  0.00  0.00    +0.000 A 
ATOM     20  C   UNL     1       1.350  -4.222  -2.927  0.00  0.00    +0.000 A 
ATOM     21  C   UNL     1       2.353  -3.463  -2.391  0.00  0.00    +0.000 A 
ATOM     22  C   UNL     1       2.087  -2.511  -1.437  0.00  0.00    +0.000 A 
BRANCH  19  23
ATOM     23  S   UNL     1      -1.078  -5.369  -2.743  0.00  0.00    +0.000 S 
ATOM     24  C   UNL     1      -1.588  -6.191  -1.213  0.00  0.00    +0.000 C 
ATOM     25  O   UNL     1      -2.295  -4.711  -3.398  0.00  0.00    +0.000 OA
ATOM     26  O   UNL     1      -0.478  -6.400  -3.701  0.00  0.00    +0.000 OA
ENDBRANCH  19  23
BRANCH  17  28
ATOM     27  C   UNL     1       0.990  -0.078  -0.061  0.00  0.00    +0.000 C 
ATOM     28  O   UNL     1       0.517  -1.413   0.044  0.00  0.00    +0.000 OA
ENDBRANCH  17  28
BRANCH  20  29
ATOM     29  O   UNL     1       1.575  -5.090  -4.028  0.00  0.00    +0.000 OA
ATOM     30  C   UNL     1       2.869  -5.187  -4.603  0.00  0.00    +0.000 C 
ENDBRANCH  20  29
ENDBRANCH  16  22
ENDBRANCH   1  16
BRANCH   8  31
ATOM     31  O   UNL     1      -0.883  -3.570   0.269  0.00  0.00    +0.000 OA
BRANCH  31  32
ATOM     32  C   UNL     1      -0.738  -3.629  -1.143  0.00  0.00    +0.000 C 
ATOM     33  C   UNL     1      -0.025  -2.378  -1.631  0.00  0.00    +0.000 C 
ATOM     34  C   UNL     1       0.077  -4.856  -1.517  0.00  0.00    +0.000 C 
ENDBRANCH  31  32
ENDBRANCH   8  31
TORSDOF 9
