REMARK  Name = 
REMARK  8 active torsions:
REMARK  status: ('A' for Active; 'I' for Inactive)
REMARK    1  A    between atoms: C_1  and  O_2
REMARK    2  A    between atoms: O_2  and  C_3
REMARK    3  A    between atoms: N_10  and  C_11
REMARK    4  A    between atoms: C_21  and  C_22
REMARK    5  A    between atoms: C_22  and  N_23
REMARK    6  A    between atoms: N_23  and  C_24
REMARK    7  A    between atoms: N_23  and  C_25
REMARK    8  A    between atoms: C_25  and  C_26
REMARK                            x       y       z     vdW  Elec       q    Type
REMARK                         _______ _______ _______ _____ _____    ______ ____
ROOT
ATOM      1  C   UNL     1       0.915   1.701   1.711  0.00  0.00    +0.000 A 
ATOM      2  C   UNL     1      -0.088   2.158   2.519  0.00  0.00    +0.000 A 
ATOM      3  C   UNL     1       0.186   2.522   3.856  0.00  0.00    +0.000 A 
ATOM      4  N   UNL     1      -0.833   2.950   4.668  0.00  0.00    +0.000 NA
ATOM      5  C   UNL     1      -0.507   3.273   5.890  0.00  0.00    +0.000 A 
ATOM      6  N   UNL     1       0.745   3.245   6.441  0.00  0.00    +0.000 NA
ATOM      7  C   UNL     1       1.731   2.851   5.671  0.00  0.00    +0.000 A 
ATOM      8  N   UNL     1       3.097   2.829   6.215  0.00  0.00    +0.000 N 
ATOM      9  C   UNL     1       1.517   2.444   4.324  0.00  0.00    +0.000 A 
ATOM     10  C   UNL     1       2.540   1.982   3.465  0.00  0.00    +0.000 A 
ATOM     11  C   UNL     1       2.238   1.612   2.185  0.00  0.00    +0.000 A 
ATOM     12  H   UNL     1       3.874   2.526   5.629  0.00  0.00    +0.000 HD
ENDROOT
BRANCH   8  13
ATOM     13  C   UNL     1       3.342   3.245   7.604  0.00  0.00    +0.000 A 
ATOM     14  C   UNL     1       4.093   4.374   7.859  0.00  0.00    +0.000 A 
ATOM     15  C   UNL     1       4.251   4.854   9.153  0.00  0.00    +0.000 A 
ATOM     16  C   UNL     1       3.635   4.178  10.205  0.00  0.00    +0.000 A 
ATOM     17  C   UNL     1       2.882   3.048   9.947  0.00  0.00    +0.000 A 
ATOM     18 CL   UNL     1       2.079   2.225  11.240  0.00  0.00    +0.000 Cl
ATOM     19  C   UNL     1       2.748   2.595   8.654  0.00  0.00    +0.000 A 
ATOM     20  F   UNL     1       1.992   1.504   8.412  0.00  0.00    +0.000 F 
ENDBRANCH   8  13
BRANCH   1  22
ATOM     21  C   UNL     1       1.046  -0.085   0.025  0.00  0.00    +0.000 C 
ATOM     22  O   UNL     1       0.572   1.190   0.431  0.00  0.00    +0.000 OA
ENDBRANCH   1  22
BRANCH  11  23
ATOM     23  C   UNL     1       3.337   1.101   1.268  0.00  0.00    +0.000 C 
BRANCH  23  24
ATOM     24  N   UNL     1       4.364   2.141   1.107  0.00  0.00    +0.000 NA
ATOM     25  C   UNL     1       5.426   1.647   0.219  0.00  0.00    +0.000 C 
BRANCH  24  26
ATOM     26  C   UNL     1       3.755   3.344   0.520  0.00  0.00    +0.000 C 
BRANCH  26  27
ATOM     27  C   UNL     1       3.163   3.002  -0.837  0.00  0.00    +0.000 C 
ATOM     28  N   UNL     1       1.726   3.189  -1.081  0.00  0.00    +0.000 N 
ATOM     29  O   UNL     1       3.911   2.554  -1.762  0.00  0.00    +0.000 OA
ATOM     30  H   UNL     1       1.329   2.959  -1.992  0.00  0.00    +0.000 HD
ATOM     31  H   UNL     1       1.125   3.548  -0.338  0.00  0.00    +0.000 HD
ENDBRANCH  26  27
ENDBRANCH  24  26
ENDBRANCH  23  24
ENDBRANCH  11  23
TORSDOF 6
