REMARK  Name = 
REMARK  12 active torsions:
REMARK  status: ('A' for Active; 'I' for Inactive)
REMARK    1  A    between atoms: C_1  and  O_2
REMARK    2  A    between atoms: O_2  and  C_3
REMARK    3  A    between atoms: N_10  and  C_11
REMARK    4  A    between atoms: C_21  and  C_22
REMARK    5  A    between atoms: C_22  and  N_23
REMARK    6  A    between atoms: N_23  and  C_24
REMARK    7  A    between atoms: N_23  and  C_25
REMARK    8  A    between atoms: C_25  and  C_26
REMARK    9  A    between atoms: C_25  and  C_30
REMARK   10  A    between atoms: C_26  and  N_27
REMARK   11  A    between atoms: N_27  and  C_28
REMARK   12  A    between atoms: N_27  and  C_29
REMARK                            x       y       z     vdW  Elec       q    Type
REMARK                         _______ _______ _______ _____ _____    ______ ____
ROOT
ATOM      1  C   UNL     1       0.915   1.382   2.126  0.00  0.00    +0.000 A 
ATOM      2  C   UNL     1      -0.062   1.733   3.017  0.00  0.00    +0.000 A 
ATOM      3  C   UNL     1       0.245   1.877   4.388  0.00  0.00    +0.000 A 
ATOM      4  N   UNL     1      -0.747   2.198   5.279  0.00  0.00    +0.000 NA
ATOM      5  C   UNL     1      -0.392   2.318   6.528  0.00  0.00    +0.000 A 
ATOM      6  N   UNL     1       0.868   2.171   7.042  0.00  0.00    +0.000 NA
ATOM      7  C   UNL     1       1.829   1.878   6.200  0.00  0.00    +0.000 A 
ATOM      8  N   UNL     1       3.203   1.737   6.705  0.00  0.00    +0.000 N 
ATOM      9  C   UNL     1       1.581   1.692   4.810  0.00  0.00    +0.000 A 
ATOM     10  C   UNL     1       2.576   1.344   3.868  0.00  0.00    +0.000 A 
ATOM     11  C   UNL     1       2.242   1.187   2.554  0.00  0.00    +0.000 A 
ATOM     12  H   UNL     1       3.961   1.508   6.063  0.00  0.00    +0.000 HD
ENDROOT
BRANCH   8  13
ATOM     13  C   UNL     1       3.482   1.924   8.136  0.00  0.00    +0.000 A 
ATOM     14  C   UNL     1       4.321   2.936   8.556  0.00  0.00    +0.000 A 
ATOM     15  C   UNL     1       4.561   3.156   9.906  0.00  0.00    +0.000 A 
ATOM     16  C   UNL     1       3.938   2.336  10.846  0.00  0.00    +0.000 A 
ATOM     17  C   UNL     1       3.098   1.323  10.423  0.00  0.00    +0.000 A 
ATOM     18 CL   UNL     1       2.287   0.327  11.582  0.00  0.00    +0.000 Cl
ATOM     19  C   UNL     1       2.883   1.128   9.078  0.00  0.00    +0.000 A 
ATOM     20  F   UNL     1       2.044   0.151   8.677  0.00  0.00    +0.000 F 
ENDBRANCH   8  13
BRANCH   1  22
ATOM     21  C   UNL     1       1.045   0.011   0.088  0.00  0.00    +0.000 C 
ATOM     22  O   UNL     1       0.572   1.166   0.765  0.00  0.00    +0.000 OA
ENDBRANCH   1  22
BRANCH  11  23
ATOM     23  C   UNL     1       3.311   0.798   1.545  0.00  0.00    +0.000 C 
BRANCH  23  24
ATOM     24  N   UNL     1       4.364   1.823   1.526  0.00  0.00    +0.000 NA
ATOM     25  C   UNL     1       5.397   1.447   0.551  0.00  0.00    +0.000 C 
BRANCH  24  26
ATOM     26  C   UNL     1       3.780   3.118   1.147  0.00  0.00    +0.000 C 
BRANCH  26  27
ATOM     27  C   UNL     1       2.712   3.507   2.156  0.00  0.00    +0.000 C 
ATOM     28  N   UNL     1       2.846   4.752   2.926  0.00  0.00    +0.000 N 
ATOM     29  O   UNL     1       1.702   2.756   2.334  0.00  0.00    +0.000 OA
ATOM     30  H   UNL     1       2.130   5.013   3.603  0.00  0.00    +0.000 HD
ATOM     31  H   UNL     1       3.657   5.355   2.783  0.00  0.00    +0.000 HD
ENDBRANCH  26  27
BRANCH  26  32
ATOM     32  C   UNL     1       3.156   3.007  -0.234  0.00  0.00    +0.000 C 
BRANCH  32  33
ATOM     33  N   UNL     1       2.103   1.982  -0.216  0.00  0.00    +0.000 NA
ATOM     34  C   UNL     1       1.500   1.875  -1.552  0.00  0.00    +0.000 C 
ATOM     35  C   UNL     1       2.687   0.687   0.163  0.00  0.00    +0.000 C 
ENDBRANCH  32  33
ENDBRANCH  26  32
ENDBRANCH  24  26
ENDBRANCH  23  24
ENDBRANCH  11  23
TORSDOF 8
