REMARK  Name = 
REMARK  13 active torsions:
REMARK  status: ('A' for Active; 'I' for Inactive)
REMARK    1  A    between atoms: C_1  and  S_2
REMARK    2  A    between atoms: S_2  and  C_5
REMARK    3  A    between atoms: C_5  and  C_6
REMARK    4  A    between atoms: C_6  and  N_7
REMARK    5  A    between atoms: N_7  and  C_8
REMARK    6  A    between atoms: N_7  and  C_11
REMARK    7  A    between atoms: C_8  and  C_9
REMARK    8  A    between atoms: C_11  and  C_12
REMARK    9  A    between atoms: C_15  and  C_16
REMARK   10  A    between atoms: N_24  and  C_25
REMARK   11  A    between atoms: C_28  and  O_29
REMARK   12  A    between atoms: O_29  and  C_30
REMARK   13  A    between atoms: C_30  and  C_31
REMARK                            x       y       z     vdW  Elec       q    Type
REMARK                         _______ _______ _______ _____ _____    ______ ____
ROOT
ATOM      1  C   UNL     1      -4.255   0.253   0.869  0.00  0.00    +0.000 A 
ATOM      2  C   UNL     1      -5.200   0.181   1.911  0.00  0.00    +0.000 A 
ATOM      3  C   UNL     1      -6.307   0.982   1.907  0.00  0.00    +0.000 A 
ATOM      4  C   UNL     1      -6.505   1.917   0.867  0.00  0.00    +0.000 A 
ATOM      5  N   UNL     1      -7.603   2.739   0.887  0.00  0.00    +0.000 NA
ATOM      6  C   UNL     1      -7.723   3.576  -0.106  0.00  0.00    +0.000 A 
ATOM      7  N   UNL     1      -6.878   3.710  -1.174  0.00  0.00    +0.000 NA
ATOM      8  C   UNL     1      -5.831   2.921  -1.215  0.00  0.00    +0.000 A 
ATOM      9  N   UNL     1      -4.910   3.014  -2.357  0.00  0.00    +0.000 N 
ATOM     10  C   UNL     1      -5.561   1.977  -0.183  0.00  0.00    +0.000 A 
ATOM     11  C   UNL     1      -4.431   1.128  -0.165  0.00  0.00    +0.000 A 
ATOM     12  H   UNL     1      -4.092   2.408  -2.403  0.00  0.00    +0.000 HD
ENDROOT
BRANCH   9  13
ATOM     13  C   UNL     1      -5.170   3.982  -3.433  0.00  0.00    +0.000 A 
ATOM     14  C   UNL     1      -5.220   5.326  -3.103  0.00  0.00    +0.000 A 
ATOM     15  C   UNL     1      -5.296   6.293  -4.099  0.00  0.00    +0.000 A 
ATOM     16  C   UNL     1      -5.343   5.910  -5.435  0.00  0.00    +0.000 A 
ATOM     17  C   UNL     1      -5.323   4.560  -5.744  0.00  0.00    +0.000 A 
ATOM     18 CL   UNL     1      -5.400   4.091  -7.415  0.00  0.00    +0.000 Cl
ATOM     19  C   UNL     1      -5.207   3.581  -4.768  0.00  0.00    +0.000 A 
BRANCH  16  20
ATOM     20  O   UNL     1      -5.411   6.885  -6.464  0.00  0.00    +0.000 OA
BRANCH  20  21
ATOM     21  C   UNL     1      -5.459   6.480  -7.824  0.00  0.00    +0.000 C 
BRANCH  21  22
ATOM     22  C   UNL     1      -4.211   5.679  -8.159  0.00  0.00    +0.000 A 
ATOM     23  C   UNL     1      -3.046   6.316  -8.475  0.00  0.00    +0.000 A 
ATOM     24  C   UNL     1      -1.931   5.554  -8.793  0.00  0.00    +0.000 A 
ATOM     25  C   UNL     1      -1.999   4.170  -8.802  0.00  0.00    +0.000 A 
ATOM     26  C   UNL     1      -3.167   3.592  -8.468  0.00  0.00    +0.000 A 
ATOM     27  F   UNL     1      -3.238   2.237  -8.471  0.00  0.00    +0.000 F 
ATOM     28  C   UNL     1      -4.277   4.295  -8.145  0.00  0.00    +0.000 A 
ENDBRANCH  21  22
ENDBRANCH  20  21
ENDBRANCH  16  20
ENDBRANCH   9  13
BRANCH   1  32
ATOM     29  C   UNL     1      -0.977  -1.339   0.916  0.00  0.00    +0.000 A 
ATOM     30  C   UNL     1      -1.721  -2.455   0.916  0.00  0.00    +0.000 A 
ATOM     31  C   UNL     1      -3.064  -2.005   0.900  0.00  0.00    +0.000 A 
ATOM     32  C   UNL     1      -3.032  -0.649   0.895  0.00  0.00    +0.000 A 
ATOM     33  O   UNL     1      -1.730  -0.211   0.916  0.00  0.00    +0.000 OA
BRANCH  29  34
ATOM     34  C   UNL     1       0.543  -1.339   0.916  0.00  0.00    +0.000 C 
BRANCH  34  35
ATOM     35  N   UNL     1       1.033  -1.752   2.239  0.00  0.00    +0.000 NA
BRANCH  35  36
ATOM     36  C   UNL     1       0.543  -0.813   3.258  0.00  0.00    +0.000 C 
BRANCH  36  37
ATOM     37  C   UNL     1       1.049   0.585   2.944  0.00  0.00    +0.000 C 
BRANCH  37  39
ATOM     38  C   UNL     1       1.049  -0.063   0.060  0.00  0.00    +0.000 C 
ATOM     39  S   UNL     1       0.446   1.094   1.315  0.00  0.00    +0.000 S 
ATOM     40  O   UNL     1       0.956   2.502   0.999  0.00  0.00    +0.000 OA
ATOM     41  O   UNL     1      -1.084   1.094   1.315  0.00  0.00    +0.000 OA
ENDBRANCH  37  39
ENDBRANCH  36  37
ENDBRANCH  35  36
BRANCH  35  42
ATOM     42  C   UNL     1       0.543  -3.104   2.543  0.00  0.00    +0.000 C 
BRANCH  42  43
ATOM     43  C   UNL     1      -0.977  -3.104   2.543  0.00  0.00    +0.000 C 
ATOM     44  N   UNL     1      -2.238  -3.104   2.543  0.00  0.00    +0.000 NA
ENDBRANCH  42  43
ENDBRANCH  35  42
ENDBRANCH  34  35
ENDBRANCH  29  34
ENDBRANCH   1  32
TORSDOF 12
