REMARK  Name = 
REMARK  2 active torsions:
REMARK  status: ('A' for Active; 'I' for Inactive)
REMARK    1  A    between atoms: C_4  and  C_5
REMARK    2  A    between atoms: N_12  and  C_13
REMARK                            x       y       z     vdW  Elec       q    Type
REMARK                         _______ _______ _______ _____ _____    ______ ____
ROOT
ATOM      1  C   UNL     1      -2.862   0.474  -0.214  0.00  0.00    +0.000 C 
ATOM      2  C   UNL     1      -3.604  -0.180   0.957  0.00  0.00    +0.000 C 
ATOM      3  C   UNL     1      -3.328  -1.685   0.949  0.00  0.00    +0.000 C 
ATOM      4  N   UNL     1      -3.735  -2.236  -0.305  0.00  0.00    +0.000 NA
ATOM      5  C   UNL     1      -3.044  -1.697  -1.433  0.00  0.00    +0.000 C 
ATOM      6  C   UNL     1      -1.641  -1.929  -1.290  0.00  0.00    +0.000 C 
ATOM      7  C   UNL     1      -1.285  -3.308  -1.179  0.00  0.00    +0.000 C 
ATOM      8  N   UNL     1      -1.716  -4.049  -2.447  0.00  0.00    +0.000 N 
ATOM      9  C   UNL     1      -3.224  -3.871  -2.646  0.00  0.00    +0.000 C 
ATOM     10  C   UNL     1      -3.546  -2.375  -2.710  0.00  0.00    +0.000 C 
ATOM     11  C   UNL     1      -3.307  -0.191  -1.520  0.00  0.00    +0.000 C 
ATOM     12  H   UNL     1      -3.571  -3.242  -0.280  0.00  0.00    +0.000 HD
ENDROOT
BRANCH   8  13
ATOM     13  C   UNL     1      -0.824  -4.812  -3.332  0.00  0.00    +0.000 A 
ATOM     14  N   UNL     1      -0.723  -4.436  -4.604  0.00  0.00    +0.000 NA
ATOM     15  C   UNL     1       0.161  -5.053  -5.397  0.00  0.00    +0.000 A 
ATOM     16  N   UNL     1       0.992  -6.037  -5.104  0.00  0.00    +0.000 NA
ATOM     17  C   UNL     1       0.883  -6.414  -3.822  0.00  0.00    +0.000 A 
ATOM     18  N   UNL     1       1.659  -7.371  -3.210  0.00  0.00    +0.000 NA
ATOM     19  C   UNL     1       1.254  -7.363  -1.959  0.00  0.00    +0.000 A 
ATOM     20  N   UNL     1       0.278  -6.489  -1.705  0.00  0.00    +0.000 N 
ATOM     21  C   UNL     1      -0.004  -5.848  -2.894  0.00  0.00    +0.000 A 
ATOM     22  H   UNL     1      -0.173  -6.325  -0.805  0.00  0.00    +0.000 HD
ENDBRANCH   8  13
BRANCH   1  26
ATOM     23  C   UNL     1       1.344  -0.225   0.036  0.00  0.00    +0.000 A 
ATOM     24  C   UNL     1       0.892   1.080  -0.070  0.00  0.00    +0.000 A 
ATOM     25  C   UNL     1      -0.509   1.215   0.075  0.00  0.00    +0.000 A 
ATOM     26  C   UNL     1      -1.373   0.223  -0.041  0.00  0.00    +0.000 A 
ATOM     27  C   UNL     1      -0.856  -1.042   0.003  0.00  0.00    +0.000 A 
ATOM     28  C   UNL     1       0.502  -1.251  -0.004  0.00  0.00    +0.000 A 
ENDBRANCH   1  26
TORSDOF 2
