REMARK  Name = 
REMARK  8 active torsions:
REMARK  status: ('A' for Active; 'I' for Inactive)
REMARK    1  A    between atoms: C_1  and  C_2
REMARK    2  A    between atoms: C_2  and  C_3
REMARK    3  A    between atoms: C_3  and  C_4
REMARK    4  A    between atoms: C_4  and  N_5
REMARK    5  A    between atoms: C_4  and  C_29
REMARK    6  A    between atoms: C_6  and  C_8
REMARK    7  A    between atoms: N_14  and  C_15
REMARK    8  A    between atoms: C_18  and  O_19
REMARK                            x       y       z     vdW  Elec       q    Type
REMARK                         _______ _______ _______ _____ _____    ______ ____
ROOT
ATOM      1  C   UNL     1      -0.905  -3.971  -3.783  0.00  0.00    +0.000 A 
ATOM      2  C   UNL     1       0.142  -4.637  -3.222  0.00  0.00    +0.000 A 
ATOM      3  C   UNL     1       0.790  -5.573  -3.930  0.00  0.00    +0.000 A 
ATOM      4  C   UNL     1       0.423  -5.887  -5.210  0.00  0.00    +0.000 A 
ATOM      5  N   UNL     1       1.156  -6.872  -5.876  0.00  0.00    +0.000 NA
ATOM      6  C   UNL     1       0.853  -7.229  -7.145  0.00  0.00    +0.000 A 
ATOM      7  N   UNL     1       1.643  -8.273  -7.813  0.00  0.00    +0.000 N 
ATOM      8  C   UNL     1      -0.204  -6.617  -7.831  0.00  0.00    +0.000 A 
ATOM      9  N   UNL     1      -0.638  -6.848  -9.079  0.00  0.00    +0.000 NA
ATOM     10  C   UNL     1      -1.649  -6.062  -9.340  0.00  0.00    +0.000 A 
ATOM     11  C   UNL     1      -1.917  -5.265  -8.225  0.00  0.00    +0.000 A 
ATOM     12  N   UNL     1      -1.001  -5.596  -7.229  0.00  0.00    +0.000 N 
ATOM     13  C   UNL     1      -0.663  -5.216  -5.849  0.00  0.00    +0.000 A 
ATOM     14  C   UNL     1      -1.320  -4.249  -5.090  0.00  0.00    +0.000 A 
ATOM     15  H   UNL     1       2.414  -8.723  -7.320  0.00  0.00    +0.000 HD
ENDROOT
BRANCH   7  16
ATOM     16  C   UNL     1       1.322  -8.668  -9.192  0.00  0.00    +0.000 C 
ATOM     17  C   UNL     1       1.462  -7.447 -10.089  0.00  0.00    +0.000 C 
ATOM     18  C   UNL     1       0.457  -6.353  -9.734  0.00  0.00    +0.000 C 
ATOM     19  C   UNL     1      -0.952  -6.942  -9.823  0.00  0.00    +0.000 C 
ATOM     20  C   UNL     1      -1.096  -8.140  -8.913  0.00  0.00    +0.000 C 
ATOM     21  C   UNL     1      -0.084  -9.231  -9.225  0.00  0.00    +0.000 C 
BRANCH  19  22
ATOM     22  O   UNL     1      -1.973  -6.021  -9.428  0.00  0.00    +0.000 OA
ATOM     23  H   UNL     1      -1.852  -5.782  -8.465  0.00  0.00    +0.000 HD
ENDBRANCH  19  22
ENDBRANCH   7  16
BRANCH   1  25
ATOM     24  N   UNL     1      -0.930  -2.124  -1.968  0.00  0.00    +0.000 N 
ATOM     25  C   UNL     1      -1.665  -3.032  -2.861  0.00  0.00    +0.000 C 
ATOM     26  O   UNL     1      -2.936  -3.032  -2.861  0.00  0.00    +0.000 OA
ATOM     27  H   UNL     1      -1.440  -1.494  -1.349  0.00  0.00    +0.000 HD
BRANCH  24  28
ATOM     28  C   UNL     1       0.539  -2.124  -1.968  0.00  0.00    +0.000 C 
BRANCH  28  29
ATOM     29  C   UNL     1       1.046  -3.146  -2.973  0.00  0.00    +0.000 A 
ATOM     30  C   UNL     1       1.512  -2.776  -4.265  0.00  0.00    +0.000 A 
ATOM     31  C   UNL     1       1.509  -3.729  -5.297  0.00  0.00    +0.000 A 
ATOM     32  C   UNL     1       1.347  -4.989  -5.019  0.00  0.00    +0.000 A 
ATOM     33  C   UNL     1       1.186  -5.400  -3.689  0.00  0.00    +0.000 A 
ATOM     34  C   UNL     1       0.887  -4.441  -2.692  0.00  0.00    +0.000 A 
ENDBRANCH  28  29
BRANCH  28  35
ATOM     35  C   UNL     1       1.046  -0.743  -2.352  0.00  0.00    +0.000 C 
BRANCH  35  37
ATOM     36  C   UNL     1       1.046  -0.079   0.040  0.00  0.00    +0.000 C 
ATOM     37  C   UNL     1       0.539   0.279  -1.347  0.00  0.00    +0.000 C 
ENDBRANCH  35  37
ENDBRANCH  28  35
ENDBRANCH  24  28
ENDBRANCH   1  25
TORSDOF 7
