REMARK  Name = 
REMARK  10 active torsions:
REMARK  status: ('A' for Active; 'I' for Inactive)
REMARK    1  A    between atoms: C_1  and  O_2
REMARK    2  A    between atoms: O_2  and  C_3
REMARK    3  A    between atoms: N_6  and  C_7
REMARK    4  A    between atoms: C_7  and  C_8
REMARK    5  A    between atoms: C_8  and  C_9
REMARK    6  A    between atoms: C_9  and  O_10
REMARK    7  A    between atoms: O_10  and  C_11
REMARK    8  A    between atoms: C_14  and  C_15
REMARK    9  A    between atoms: C_18  and  C_19
REMARK   10  A    between atoms: C_19  and  O_21
REMARK                            x       y       z     vdW  Elec       q    Type
REMARK                         _______ _______ _______ _____ _____    ______ ____
ROOT
ATOM      1  C   UNL     1       3.458  -0.192  -2.449  0.00  0.00    +0.000 A 
ATOM      2  C   UNL     1       4.537   0.567  -2.028  0.00  0.00    +0.000 A 
ATOM      3  C   UNL     1       5.765  -0.136  -2.023  0.00  0.00    +0.000 A 
ATOM      4  C   UNL     1       5.875  -1.452  -2.052  0.00  0.00    +0.000 A 
ATOM      5  C   UNL     1       4.753  -2.148  -2.410  0.00  0.00    +0.000 A 
ATOM      6  C   UNL     1       3.545  -1.512  -2.561  0.00  0.00    +0.000 A 
ENDROOT
BRANCH   4   7
ATOM      7  C   UNL     1       7.177  -2.155  -1.706  0.00  0.00    +0.000 A 
ATOM      8  C   UNL     1       7.725  -1.969  -0.447  0.00  0.00    +0.000 A 
ATOM      9  C   UNL     1       9.063  -2.413  -0.333  0.00  0.00    +0.000 A 
ATOM     10  C   UNL     1       9.839  -1.924   0.777  0.00  0.00    +0.000 A 
ATOM     11  C   UNL     1      11.207  -2.345   0.941  0.00  0.00    +0.000 A 
ATOM     12  N   UNL     1      10.844  -3.888  -0.857  0.00  0.00    +0.000 N 
ATOM     13  C   UNL     1       9.651  -3.244  -1.174  0.00  0.00    +0.000 A 
ATOM     14  C   UNL     1       9.025  -3.439  -2.374  0.00  0.00    +0.000 A 
ATOM     15  C   UNL     1       7.771  -2.927  -2.608  0.00  0.00    +0.000 A 
ATOM     16 CL   UNL     1       6.937  -3.300  -4.136  0.00  0.00    +0.000 Cl
ATOM     17  H   UNL     1      11.274  -4.525  -1.527  0.00  0.00    +0.000 HD
BRANCH  10  18
ATOM     18  C   UNL     1       9.214  -0.965   1.777  0.00  0.00    +0.000 C 
ATOM     19  O   UNL     1       9.899  -0.534   2.757  0.00  0.00    +0.000 OA
BRANCH  18  20
ATOM     20  O   UNL     1       7.866  -0.550   1.616  0.00  0.00    +0.000 OA
ATOM     21  H   UNL     1       7.455   0.081   2.274  0.00  0.00    +0.000 HD
ENDBRANCH  18  20
ENDBRANCH  10  18
ENDBRANCH   4   7
BRANCH   1  22
ATOM     22  O   UNL     1       2.241   0.466  -2.773  0.00  0.00    +0.000 OA
BRANCH  22  23
ATOM     23  C   UNL     1       1.006  -0.059  -2.309  0.00  0.00    +0.000 C 
BRANCH  23  24
ATOM     24  C   UNL     1       0.818  -1.467  -2.850  0.00  0.00    +0.000 C 
BRANCH  24  25
ATOM     25  C   UNL     1       1.956  -2.351  -2.369  0.00  0.00    +0.000 C 
BRANCH  25  29
ATOM     26  C   UNL     1       0.943  -1.665   1.728  0.00  0.00    +0.000 C 
ATOM     27  C   UNL     1       2.207  -1.046   1.136  0.00  0.00    +0.000 C 
ATOM     28  C   UNL     1       2.142  -1.028  -0.376  0.00  0.00    +0.000 C 
ATOM     29  N   UNL     1       1.960  -2.388  -0.899  0.00  0.00    +0.000 NA
ATOM     30  C   UNL     1       0.688  -2.926  -0.421  0.00  0.00    +0.000 C 
ATOM     31  C   UNL     1       0.677  -3.029   1.095  0.00  0.00    +0.000 C 
BRANCH  26  33
ATOM     32  C   UNL     1       0.943  -0.065   0.049  0.00  0.00    +0.000 C 
ATOM     33  O   UNL     1       0.469  -0.381   1.350  0.00  0.00    +0.000 OA
ENDBRANCH  26  33
ENDBRANCH  25  29
ENDBRANCH  24  25
ENDBRANCH  23  24
ENDBRANCH  22  23
ENDBRANCH   1  22
TORSDOF 9
