
 OpenBabel03132512093D

 36 39  0  0  0  0  0  0  0  0999 V2000
    0.9013   -0.0160   -0.0029 F   0  0  0  0  0  0  0  0  0  0  0  0
    2.2313   -0.0160   -0.0029 C   0  0  0  0  0  0  0  0  0  0  0  0
    2.6747    0.6624    1.0517 F   0  0  0  0  0  0  0  0  0  0  0  0
    2.6747   -1.2685    0.0574 F   0  0  0  0  0  0  0  0  0  0  0  0
    2.7380    0.6401   -1.2769 C   0  0  0  0  0  0  0  0  0  0  0  0
    2.2480   -0.1097   -2.4425 N   0  0  0  0  0  0  0  0  0  0  0  0
    1.4029    0.5574   -3.4433 C   0  0  0  0  0  0  0  0  0  0  0  0
    1.7810    1.8130   -3.8757 N   0  0  0  0  0  0  0  0  0  0  0  0
    1.0672    2.4532   -4.8890 C   0  0  0  0  0  0  0  0  0  0  0  0
    1.4730    3.7952   -5.3310 N   0  0  0  0  0  0  0  0  0  0  0  0
    0.7250    4.4750   -6.3982 C   0  0  0  0  0  0  0  0  0  0  0  0
   -0.6333    4.7691   -6.2763 C   0  0  0  0  0  0  0  0  0  0  0  0
   -1.3271    5.3109   -7.3400 C   0  0  0  0  0  0  0  0  0  0  0  0
   -0.6625    5.5576   -8.5451 C   0  0  0  0  0  0  0  0  0  0  0  0
   -1.0765    6.1059   -9.8356 C   0  0  0  0  0  0  0  0  0  0  0  0
   -0.0376    6.1136  -10.6185 N   0  0  0  0  0  0  0  0  0  0  0  0
    1.0766    5.6018   -9.9467 N   0  0  0  0  0  0  0  0  0  0  0  0
    0.7051    5.2537   -8.6641 C   0  0  0  0  0  0  0  0  0  0  0  0
    1.3876    4.7095   -7.5821 C   0  0  0  0  0  0  0  0  0  0  0  0
   -0.0143    1.8380   -5.4785 N   0  0  0  0  0  0  0  0  0  0  0  0
   -0.4091    0.5735   -5.0568 C   0  0  0  0  0  0  0  0  0  0  0  0
   -1.4246   -0.2818   -5.4329 C   0  0  0  0  0  0  0  0  0  0  0  0
   -1.3496   -1.4434   -4.6585 C   0  0  0  0  0  0  0  0  0  0  0  0
   -0.3533   -1.3642   -3.8257 O   0  0  0  0  0  0  0  0  0  0  0  0
    0.3029   -0.0740   -4.0318 C   0  0  0  0  0  0  0  0  0  0  0  0
    2.3813    1.6478   -1.3254 H   0  0  0  0  0  0  0  0  0  0  0  0
    3.8080    0.6401   -1.2769 H   0  0  0  0  0  0  0  0  0  0  0  0
    2.4944   -1.0929   -2.5568 H   0  0  0  0  0  0  0  0  0  0  0  0
    2.2737    4.2546   -4.8970 H   0  0  0  0  0  0  0  0  0  0  0  0
   -1.1397    4.5739   -5.3542 H   0  0  0  0  0  0  0  0  0  0  0  0
   -2.3676    5.5407   -7.2427 H   0  0  0  0  0  0  0  0  0  0  0  0
   -2.0599    6.4414  -10.0909 H   0  0  0  0  0  0  0  0  0  0  0  0
    2.0121    5.5019  -10.3407 H   0  0  0  0  0  0  0  0  0  0  0  0
    2.4275    4.4730   -7.6693 H   0  0  0  0  0  0  0  0  0  0  0  0
   -2.1514   -0.0875   -6.1938 H   0  0  0  0  0  0  0  0  0  0  0  0
   -2.0154   -2.2771   -4.7390 H   0  0  0  0  0  0  0  0  0  0  0  0
  1  2  1  0  0  0  0
  2  3  1  0  0  0  0
  2  4  1  0  0  0  0
  2  5  1  0  0  0  0
  5  6  1  0  0  0  0
  5 26  1  0  0  0  0
  5 27  1  0  0  0  0
  6  7  1  0  0  0  0
  6 28  1  0  0  0  0
  7  8  1  0  0  0  0
  7 25  2  0  0  0  0
  8  9  2  0  0  0  0
  9 10  1  0  0  0  0
  9 20  1  0  0  0  0
 10 11  1  0  0  0  0
 10 29  1  0  0  0  0
 11 12  1  0  0  0  0
 11 19  2  0  0  0  0
 12 13  2  0  0  0  0
 12 30  1  0  0  0  0
 13 14  1  0  0  0  0
 13 31  1  0  0  0  0
 14 15  1  0  0  0  0
 14 18  2  0  0  0  0
 15 16  2  0  0  0  0
 15 32  1  0  0  0  0
 16 17  1  0  0  0  0
 17 18  1  0  0  0  0
 17 33  1  0  0  0  0
 18 19  1  0  0  0  0
 19 34  1  0  0  0  0
 20 21  2  0  0  0  0
 21 22  1  0  0  0  0
 21 25  1  0  0  0  0
 22 23  2  0  0  0  0
 22 35  1  0  0  0  0
 23 24  1  0  0  0  0
 23 36  1  0  0  0  0
 24 25  1  0  0  0  0
M  END
