REMARK  Name = 
REMARK  10 active torsions:
REMARK  status: ('A' for Active; 'I' for Inactive)
REMARK    1  A    between atoms: C_1  and  C_2
REMARK    2  A    between atoms: C_2  and  C_3
REMARK    3  A    between atoms: C_2  and  O_4
REMARK    4  A    between atoms: C_2  and  C_5
REMARK    5  A    between atoms: C_8  and  C_9
REMARK    6  A    between atoms: C_13  and  O_14
REMARK    7  A    between atoms: O_14  and  C_15
REMARK    8  A    between atoms: C_18  and  C_19
REMARK    9  A    between atoms: C_19  and  O_20
REMARK   10  A    between atoms: C_21  and  O_22
REMARK                            x       y       z     vdW  Elec       q    Type
REMARK                         _______ _______ _______ _____ _____    ______ ____
ROOT
ATOM      1  C   UNL     1       2.140   2.139   5.953  0.00  0.00    +0.000 A 
ATOM      2  C   UNL     1       3.361   1.628   6.359  0.00  0.00    +0.000 A 
ATOM      3  C   UNL     1       3.540   1.617   7.763  0.00  0.00    +0.000 A 
ATOM      4  N   UNL     1       4.539   0.797   8.282  0.00  0.00    +0.000 NA
ATOM      5  C   UNL     1       4.756   0.750   9.657  0.00  0.00    +0.000 A 
ATOM      6  N   UNL     1       3.233   2.524   9.932  0.00  0.00    +0.000 N 
ATOM      7  C   UNL     1       2.825   2.329   8.614  0.00  0.00    +0.000 A 
ATOM      8  C   UNL     1       1.663   2.865   8.133  0.00  0.00    +0.000 A 
ATOM      9  C   UNL     1       1.356   2.801   6.796  0.00  0.00    +0.000 A 
ATOM     10 CL   UNL     1      -0.106   3.614   6.187  0.00  0.00    +0.000 Cl
ATOM     11  H   UNL     1       2.659   3.079  10.567  0.00  0.00    +0.000 HD
ENDROOT
BRANCH   1  15
ATOM     12  C   UNL     1       1.029   1.477   1.882  0.00  0.00    +0.000 A 
ATOM     13  C   UNL     1       1.378   0.387   2.662  0.00  0.00    +0.000 A 
ATOM     14  C   UNL     1       1.513   0.686   4.038  0.00  0.00    +0.000 A 
ATOM     15  C   UNL     1       1.664   1.903   4.529  0.00  0.00    +0.000 A 
ATOM     16  C   UNL     1       1.368   2.939   3.687  0.00  0.00    +0.000 A 
ATOM     17  C   UNL     1       1.097   2.715   2.359  0.00  0.00    +0.000 A 
BRANCH  12  19
ATOM     18  C   UNL     1       1.029  -0.082  -0.049  0.00  0.00    +0.000 C 
ATOM     19  C   UNL     1       0.523   1.255   0.467  0.00  0.00    +0.000 C 
ATOM     20  C   UNL     1       1.029   2.370  -0.434  0.00  0.00    +0.000 C 
BRANCH  19  21
ATOM     21  O   UNL     1      -0.897   1.255   0.467  0.00  0.00    +0.000 OA
ATOM     22  H   UNL     1      -1.231   1.109  -0.465  0.00  0.00    +0.000 HD
ENDBRANCH  19  21
ENDBRANCH  12  19
ENDBRANCH   1  15
BRANCH   5  23
ATOM     23  O   UNL     1       5.774  -0.086  10.187  0.00  0.00    +0.000 OA
BRANCH  23  24
ATOM     24  C   UNL     1       5.996  -0.134  11.589  0.00  0.00    +0.000 C 
ATOM     25  C   UNL     1       6.177  -1.589  12.029  0.00  0.00    +0.000 C 
ATOM     26  O   UNL     1       7.332  -2.139  11.392  0.00  0.00    +0.000 OA
ATOM     27  C   UNL     1       8.551  -1.468  11.716  0.00  0.00    +0.000 C 
ATOM     28  C   UNL     1       8.466  -0.008  11.264  0.00  0.00    +0.000 C 
ATOM     29  C   UNL     1       7.261   0.657  11.936  0.00  0.00    +0.000 C 
BRANCH  28  30
ATOM     30  O   UNL     1       8.316   0.046   9.853  0.00  0.00    +0.000 OA
ATOM     31  H   UNL     1       7.480  -0.434   9.587  0.00  0.00    +0.000 HD
ENDBRANCH  28  30
BRANCH  27  32
ATOM     32  C   UNL     1       9.710  -2.152  11.009  0.00  0.00    +0.000 C 
BRANCH  32  33
ATOM     33  O   UNL     1      10.921  -1.485  11.331  0.00  0.00    +0.000 OA
ATOM     34  H   UNL     1      10.866  -0.531  11.035  0.00  0.00    +0.000 HD
ENDBRANCH  32  33
ENDBRANCH  27  32
ENDBRANCH  23  24
ENDBRANCH   5  23
TORSDOF 8
