REMARK  Name = 
REMARK  13 active torsions:
REMARK  status: ('A' for Active; 'I' for Inactive)
REMARK    1  A    between atoms: C_1  and  C_2
REMARK    2  A    between atoms: C_2  and  N_3
REMARK    3  A    between atoms: N_3  and  C_4
REMARK    4  A    between atoms: N_3  and  C_6
REMARK    5  A    between atoms: C_4  and  C_5
REMARK    6  A    between atoms: C_6  and  C_7
REMARK    7  A    between atoms: C_7  and  N_8
REMARK    8  A    between atoms: C_9  and  C_11
REMARK    9  A    between atoms: C_12  and  C_13
REMARK   10  A    between atoms: C_15  and  C_16
REMARK   11  A    between atoms: C_25  and  C_26
REMARK   12  A    between atoms: C_29  and  C_30
REMARK   13  A    between atoms: C_39  and  C_40
REMARK                            x       y       z     vdW  Elec       q    Type
REMARK                         _______ _______ _______ _____ _____    ______ ____
ROOT
ATOM      1  C   UNL     1       8.498  -1.450  -1.256  0.00  0.00    +0.000 C 
ATOM      2  C   UNL     1       9.487  -2.242  -1.707  0.00  0.00    +0.000 C 
ATOM      3  C   UNL     1       9.265  -3.703  -1.929  0.00  0.00    +0.000 C 
ATOM      4  O   UNL     1       8.250  -4.362  -1.700  0.00  0.00    +0.000 OA
ATOM      5  N   UNL     1      10.409  -4.202  -2.460  0.00  0.00    +0.000 N 
ATOM      6  C   UNL     1      11.382  -3.207  -2.598  0.00  0.00    +0.000 A 
ATOM      7  C   UNL     1      12.655  -3.365  -3.094  0.00  0.00    +0.000 A 
ATOM      8  C   UNL     1      13.483  -2.248  -3.101  0.00  0.00    +0.000 A 
ATOM      9  C   UNL     1      13.020  -1.044  -2.591  0.00  0.00    +0.000 A 
ATOM     10  C   UNL     1      11.722  -0.903  -2.116  0.00  0.00    +0.000 A 
ATOM     11  C   UNL     1      10.866  -1.997  -2.133  0.00  0.00    +0.000 A 
ATOM     12  H   UNL     1      10.542  -5.178  -2.725  0.00  0.00    +0.000 HD
ENDROOT
BRANCH   1  17
ATOM     13  C   UNL     1       4.963  -2.574  -0.802  0.00  0.00    +0.000 A 
ATOM     14  C   UNL     1       5.616  -3.353   0.121  0.00  0.00    +0.000 A 
ATOM     15  C   UNL     1       5.111  -4.398   1.054  0.00  0.00    +0.000 C 
ATOM     16  N   UNL     1       6.939  -3.025   0.068  0.00  0.00    +0.000 N 
ATOM     17  C   UNL     1       7.157  -2.064  -0.890  0.00  0.00    +0.000 A 
ATOM     18  C   UNL     1       5.944  -1.760  -1.456  0.00  0.00    +0.000 A 
ATOM     19  C   UNL     1       5.673  -0.734  -2.528  0.00  0.00    +0.000 C 
ATOM     20  H   UNL     1       7.664  -3.436   0.655  0.00  0.00    +0.000 HD
BRANCH  13  22
ATOM     21  N   UNL     1       2.513  -2.569   0.038  0.00  0.00    +0.000 N 
ATOM     22  C   UNL     1       3.468  -2.576  -1.079  0.00  0.00    +0.000 C 
ATOM     23  O   UNL     1       3.044  -2.583  -2.278  0.00  0.00    +0.000 OA
ATOM     24  H   UNL     1       1.510  -2.571  -0.149  0.00  0.00    +0.000 HD
BRANCH  21  25
ATOM     25  C   UNL     1       3.003  -2.561   1.424  0.00  0.00    +0.000 C 
BRANCH  25  26
ATOM     26  C   UNL     1       2.496  -1.316   2.133  0.00  0.00    +0.000 C 
BRANCH  26  27
ATOM     27  N   UNL     1       1.026  -1.316   2.133  0.00  0.00    +0.000 NA
BRANCH  27  29
ATOM     28  C   UNL     1       1.043  -0.087   0.023  0.00  0.00    +0.000 C 
ATOM     29  C   UNL     1       0.536  -1.324   0.747  0.00  0.00    +0.000 C 
ENDBRANCH  27  29
BRANCH  27  30
ATOM     30  C   UNL     1       0.536  -2.512   2.833  0.00  0.00    +0.000 C 
ATOM     31  C   UNL     1       1.043  -3.758   2.124  0.00  0.00    +0.000 C 
ENDBRANCH  27  30
ENDBRANCH  26  27
ENDBRANCH  25  26
ENDBRANCH  21  25
ENDBRANCH  13  22
ENDBRANCH   1  17
BRANCH  10  32
ATOM     32  C   UNL     1      11.243   0.437  -1.583  0.00  0.00    +0.000 A 
ATOM     33  C   UNL     1      11.364   1.537  -2.416  0.00  0.00    +0.000 A 
ATOM     34  C   UNL     1      11.287   2.778  -1.741  0.00  0.00    +0.000 A 
ATOM     35  C   UNL     1      10.795   2.941  -0.526  0.00  0.00    +0.000 A 
ATOM     36  C   UNL     1      10.636   1.808   0.222  0.00  0.00    +0.000 A 
ATOM     37  C   UNL     1      10.819   0.564  -0.331  0.00  0.00    +0.000 A 
BRANCH  35  38
ATOM     38  C   UNL     1      10.426   4.314   0.011  0.00  0.00    +0.000 A 
ATOM     39  C   UNL     1       9.550   5.096  -0.725  0.00  0.00    +0.000 A 
ATOM     40  C   UNL     1       9.587   6.470  -0.389  0.00  0.00    +0.000 A 
ATOM     41  C   UNL     1      10.101   6.954   0.728  0.00  0.00    +0.000 A 
ATOM     42  C   UNL     1      10.903   6.110   1.444  0.00  0.00    +0.000 A 
ATOM     43  C   UNL     1      11.020   4.785   1.101  0.00  0.00    +0.000 A 
ENDBRANCH  35  38
ENDBRANCH  10  32
TORSDOF 9
