
 OpenBabel03132514253D

 64 69  0  0  0  0  0  0  0  0999 V2000
    1.0221    0.0439   -0.0871 C   0  0  0  0  0  0  0  0  0  0  0  0
    0.5321   -1.3364   -0.2119 N   0  0  0  0  0  0  0  0  0  0  0  0
   -1.2279   -1.3364   -0.2119 S   0  0  0  0  0  0  0  0  0  0  0  0
   -1.8312   -0.3535   -1.6069 C   0  0  0  0  0  0  0  0  0  0  0  0
   -1.7381   -2.7734   -0.3419 O   0  0  0  0  0  0  0  0  0  0  0  0
   -1.7530   -0.7127    1.1359 N   0  0  0  0  0  0  0  0  0  0  0  0
   -3.1982   -0.5999    1.3797 C   0  0  0  0  0  0  0  0  0  0  0  0
   -3.7101    0.5792    1.8958 C   0  0  0  0  0  0  0  0  0  0  0  0
   -5.0432    0.4717    2.3576 C   0  0  0  0  0  0  0  0  0  0  0  0
   -5.8735   -0.5013    2.0292 C   0  0  0  0  0  0  0  0  0  0  0  0
   -7.3703   -0.3924    2.2702 C   0  0  0  0  0  0  0  0  0  0  0  0
   -8.0830    0.6303    1.6663 C   0  0  0  0  0  0  0  0  0  0  0  0
   -9.3867    0.8059    2.1874 C   0  0  0  0  0  0  0  0  0  0  0  0
  -10.0348   -0.0949    2.9033 C   0  0  0  0  0  0  0  0  0  0  0  0
  -11.5325    0.0003    3.1446 C   0  0  0  0  0  0  0  0  0  0  0  0
  -12.4033   -0.0099    2.0731 N   0  0  0  0  0  0  0  0  0  0  0  0
  -13.7796    0.0845    2.3002 C   0  0  0  0  0  0  0  0  0  0  0  0
  -14.9508    0.1041    1.4253 N   0  0  0  0  0  0  0  0  0  0  0  0
  -16.0085    0.2089    2.1754 C   0  0  0  0  0  0  0  0  0  0  0  0
  -17.3437    0.2605    1.6949 O   0  0  0  0  0  0  0  0  0  0  0  0
  -17.5990    0.1966    0.2995 C   0  0  0  0  0  0  0  0  0  0  0  0
  -17.1259   -0.9564   -0.2005 C   0  0  0  0  0  0  0  0  0  0  0  0
  -15.7339   -0.7871   -0.5881 O   0  0  0  0  0  0  0  0  0  0  0  0
  -15.5280    0.7201   -0.8321 C   0  0  0  0  0  0  0  0  0  0  0  0
  -15.4463    0.9773   -2.3223 C   0  0  0  0  0  0  0  0  0  0  0  0
  -14.7424   -0.0666   -2.9791 O   0  0  0  0  0  0  0  0  0  0  0  0
  -16.7251    1.0651   -2.7814 C   0  0  0  0  0  0  0  0  0  0  0  0
  -17.5870    1.6164   -1.7469 O   0  0  0  0  0  0  0  0  0  0  0  0
  -16.8891    1.3366   -0.4024 C   0  0  0  0  0  0  0  0  0  0  0  0
  -15.6406    0.2635    3.5232 N   0  0  0  0  0  0  0  0  0  0  0  0
  -14.2658    0.1880    3.6154 C   0  0  0  0  0  0  0  0  0  0  0  0
  -13.3740    0.1956    4.6819 C   0  0  0  0  0  0  0  0  0  0  0  0
  -12.0208    0.0972    4.4478 C   0  0  0  0  0  0  0  0  0  0  0  0
  -10.8856    0.0934    5.8187 Cl  0  0  0  0  0  0  0  0  0  0  0  0
   -9.2861   -1.1178    3.4157 C   0  0  0  0  0  0  0  0  0  0  0  0
   -7.9699   -1.2792    3.0558 C   0  0  0  0  0  0  0  0  0  0  0  0
   -5.3143   -1.6120    1.4607 C   0  0  0  0  0  0  0  0  0  0  0  0
   -3.9882   -1.6302    1.1013 C   0  0  0  0  0  0  0  0  0  0  0  0
    0.6654    0.4676    0.8285 H   0  0  0  0  0  0  0  0  0  0  0  0
    0.6654    0.6250   -0.9117 H   0  0  0  0  0  0  0  0  0  0  0  0
    2.0921    0.0439   -0.0871 H   0  0  0  0  0  0  0  0  0  0  0  0
    0.8721   -1.7402   -1.0847 H   0  0  0  0  0  0  0  0  0  0  0  0
   -1.4746   -0.7771   -2.5225 H   0  0  0  0  0  0  0  0  0  0  0  0
   -2.9012   -0.3535   -1.6069 H   0  0  0  0  0  0  0  0  0  0  0  0
   -1.4746    0.6512   -1.5160 H   0  0  0  0  0  0  0  0  0  0  0  0
   -3.1484    1.4887    1.9410 H   0  0  0  0  0  0  0  0  0  0  0  0
   -5.4037    1.2316    3.0191 H   0  0  0  0  0  0  0  0  0  0  0  0
   -7.6839    1.2328    0.8772 H   0  0  0  0  0  0  0  0  0  0  0  0
   -9.8819    1.7332    1.9876 H   0  0  0  0  0  0  0  0  0  0  0  0
  -18.6557    0.2613    0.1441 H   0  0  0  0  0  0  0  0  0  0  0  0
  -17.1963   -1.7214    0.5443 H   0  0  0  0  0  0  0  0  0  0  0  0
  -17.7024   -1.2357   -1.0575 H   0  0  0  0  0  0  0  0  0  0  0  0
  -14.6593    1.0949   -0.3324 H   0  0  0  0  0  0  0  0  0  0  0  0
  -14.9250    1.8928   -2.5093 H   0  0  0  0  0  0  0  0  0  0  0  0
  -15.2104   -0.9358   -2.8197 H   0  0  0  0  0  0  0  0  0  0  0  0
  -17.0723    0.0878   -3.0446 H   0  0  0  0  0  0  0  0  0  0  0  0
  -16.7504    1.7022   -3.6407 H   0  0  0  0  0  0  0  0  0  0  0  0
  -16.8475    2.2088    0.2161 H   0  0  0  0  0  0  0  0  0  0  0  0
  -16.2839    0.3457    4.3104 H   0  0  0  0  0  0  0  0  0  0  0  0
  -13.7392    0.2781    5.6842 H   0  0  0  0  0  0  0  0  0  0  0  0
   -9.7315   -1.8024    4.1069 H   0  0  0  0  0  0  0  0  0  0  0  0
   -7.4231   -2.1273    3.4119 H   0  0  0  0  0  0  0  0  0  0  0  0
   -5.9180   -2.4794    1.2932 H   0  0  0  0  0  0  0  0  0  0  0  0
   -3.5886   -2.4825    0.5924 H   0  0  0  0  0  0  0  0  0  0  0  0
  1  2  1  0  0  0  0
  1 39  1  0  0  0  0
  1 40  1  0  0  0  0
  1 41  1  0  0  0  0
  2  3  1  0  0  0  0
  2 42  1  0  0  0  0
  3  4  1  0  0  0  0
  3  5  2  0  0  0  0
  3  6  2  0  0  0  0
  4 43  1  0  0  0  0
  4 44  1  0  0  0  0
  4 45  1  0  0  0  0
  6  7  1  0  0  0  0
  7  8  1  0  0  0  0
  7 38  2  0  0  0  0
  8  9  2  0  0  0  0
  8 46  1  0  0  0  0
  9 10  1  0  0  0  0
  9 47  1  0  0  0  0
 10 11  1  0  0  0  0
 10 37  2  0  0  0  0
 11 12  1  0  0  0  0
 11 36  2  0  0  0  0
 12 13  2  0  0  0  0
 12 48  1  0  0  0  0
 13 14  1  0  0  0  0
 13 49  1  0  0  0  0
 14 15  1  0  0  0  0
 14 35  2  0  0  0  0
 15 16  1  0  0  0  0
 15 33  2  0  0  0  0
 16 17  2  0  0  0  0
 17 18  1  0  0  0  0
 17 31  1  0  0  0  0
 18 19  2  0  0  0  0
 19 20  1  0  0  0  0
 19 30  1  0  0  0  0
 20 21  1  0  0  0  0
 21 22  1  0  0  0  0
 21 29  1  0  0  0  0
 21 50  1  0  0  0  0
 22 23  1  0  0  0  0
 22 51  1  0  0  0  0
 22 52  1  0  0  0  0
 23 24  1  0  0  0  0
 24 25  1  0  0  0  0
 24 29  1  0  0  0  0
 24 53  1  0  0  0  0
 25 26  1  0  0  0  0
 25 27  1  0  0  0  0
 25 54  1  0  0  0  0
 26 55  1  0  0  0  0
 27 28  1  0  0  0  0
 27 56  1  0  0  0  0
 27 57  1  0  0  0  0
 28 29  1  0  0  0  0
 29 58  1  0  0  0  0
 30 31  1  0  0  0  0
 30 59  1  0  0  0  0
 31 32  2  0  0  0  0
 32 33  1  0  0  0  0
 32 60  1  0  0  0  0
 33 34  1  0  0  0  0
 35 36  1  0  0  0  0
 35 61  1  0  0  0  0
 36 62  1  0  0  0  0
 37 38  1  0  0  0  0
 37 63  1  0  0  0  0
 38 64  1  0  0  0  0
M  END
