
 OpenBabel03132512093D

 52 56  0  0  0  0  0  0  0  0999 V2000
    0.9405    0.0795    0.0115 C   0  0  0  0  0  0  0  0  0  0  0  0
    0.4338   -1.1044    0.8191 C   0  0  0  0  0  0  0  0  0  0  0  0
    0.9238   -1.0005    2.2011 N   0  0  0  0  0  0  0  0  0  0  0  0
   -0.0315   -0.9167    3.3153 C   0  0  0  0  0  0  0  0  0  0  0  0
    0.3922   -0.8269    4.5101 O   0  0  0  0  0  0  0  0  0  0  0  0
   -1.5259   -0.9375    3.0383 C   0  0  0  0  0  0  0  0  0  0  0  0
   -2.4746   -0.1180    3.5912 C   0  0  0  0  0  0  0  0  0  0  0  0
   -3.7010   -0.4588    3.1103 N   0  0  0  0  0  0  0  0  0  0  0  0
   -3.6041   -1.4988    2.2101 C   0  0  0  0  0  0  0  0  0  0  0  0
   -4.4906   -2.1701    1.4772 N   0  0  0  0  0  0  0  0  0  0  0  0
   -4.1006   -3.1438    0.6672 C   0  0  0  0  0  0  0  0  0  0  0  0
   -2.7440   -3.5016    0.5797 C   0  0  0  0  0  0  0  0  0  0  0  0
   -2.2975   -4.6348   -0.3296 C   0  0  0  0  0  0  0  0  0  0  0  0
   -1.5229   -5.6620   -0.0460 N   0  0  0  0  0  0  0  0  0  0  0  0
   -1.2070   -6.3236   -1.1496 N   0  0  0  0  0  0  0  0  0  0  0  0
   -0.3581   -7.5218   -1.2175 C   0  0  0  0  0  0  0  0  0  0  0  0
   -1.7866   -5.7223   -2.1875 C   0  0  0  0  0  0  0  0  0  0  0  0
   -1.8230   -5.9503   -3.5792 C   0  0  0  0  0  0  0  0  0  0  0  0
   -2.5343   -5.1166   -4.3687 C   0  0  0  0  0  0  0  0  0  0  0  0
   -2.5850   -5.4136   -6.1230 Cl  0  0  0  0  0  0  0  0  0  0  0  0
   -3.2123   -4.0563   -3.8556 C   0  0  0  0  0  0  0  0  0  0  0  0
   -3.2178   -3.7915   -2.5301 C   0  0  0  0  0  0  0  0  0  0  0  0
   -3.9008   -2.7516   -2.0599 F   0  0  0  0  0  0  0  0  0  0  0  0
   -2.5038   -4.6138   -1.6563 C   0  0  0  0  0  0  0  0  0  0  0  0
   -1.8577   -2.8267    1.3104 N   0  0  0  0  0  0  0  0  0  0  0  0
   -2.2425   -1.8440    2.1211 C   0  0  0  0  0  0  0  0  0  0  0  0
   -1.0862   -1.1044    0.8191 C   0  0  0  0  0  0  0  0  0  0  0  0
   -1.7216   -2.0961    0.3418 O   0  0  0  0  0  0  0  0  0  0  0  0
   -1.8212    0.0428    1.3712 N   0  0  0  0  0  0  0  0  0  0  0  0
   -3.0145    0.2851    2.3115 C   0  0  0  0  0  0  0  0  0  0  0  0
   -3.1991    1.6357    1.6011 C   0  0  0  0  0  0  0  0  0  0  0  0
   -3.8118    2.8358    2.3045 C   0  0  0  0  0  0  0  0  0  0  0  0
   -4.3200    3.8314    2.8880 N   0  0  0  0  0  0  0  0  0  0  0  0
   -1.7021    1.5736    1.2558 C   0  0  0  0  0  0  0  0  0  0  0  0
    0.5838    0.9885    0.4490 H   0  0  0  0  0  0  0  0  0  0  0  0
    0.5838    0.0039   -0.9944 H   0  0  0  0  0  0  0  0  0  0  0  0
    2.0105    0.0795    0.0115 H   0  0  0  0  0  0  0  0  0  0  0  0
    0.7905   -2.0134    0.3816 H   0  0  0  0  0  0  0  0  0  0  0  0
    1.9266   -0.9865    2.3870 H   0  0  0  0  0  0  0  0  0  0  0  0
   -2.2813    0.6674    4.2917 H   0  0  0  0  0  0  0  0  0  0  0  0
   -4.5744   -0.0060    3.3795 H   0  0  0  0  0  0  0  0  0  0  0  0
   -4.8250   -3.6624    0.0745 H   0  0  0  0  0  0  0  0  0  0  0  0
   -0.9186   -8.3328   -1.6334 H   0  0  0  0  0  0  0  0  0  0  0  0
    0.4922   -7.3220   -1.8355 H   0  0  0  0  0  0  0  0  0  0  0  0
   -0.0301   -7.7827   -0.2330 H   0  0  0  0  0  0  0  0  0  0  0  0
   -1.2921   -6.7759   -4.0053 H   0  0  0  0  0  0  0  0  0  0  0  0
   -3.7554   -3.4149   -4.5177 H   0  0  0  0  0  0  0  0  0  0  0  0
   -3.8142   -0.4196    2.4049 H   0  0  0  0  0  0  0  0  0  0  0  0
   -2.7603    0.3557    3.3485 H   0  0  0  0  0  0  0  0  0  0  0  0
   -3.8546    1.6105    0.7557 H   0  0  0  0  0  0  0  0  0  0  0  0
   -0.9702    2.1282    1.8051 H   0  0  0  0  0  0  0  0  0  0  0  0
   -1.4524    1.9312    0.2787 H   0  0  0  0  0  0  0  0  0  0  0  0
  1  2  1  0  0  0  0
  1 35  1  0  0  0  0
  1 36  1  0  0  0  0
  1 37  1  0  0  0  0
  2  3  1  0  0  0  0
  2 27  1  0  0  0  0
  2 38  1  0  0  0  0
  3  4  1  0  0  0  0
  3 39  1  0  0  0  0
  4  5  2  0  0  0  0
  4  6  1  0  0  0  0
  6  7  2  0  0  0  0
  6 26  1  0  0  0  0
  7  8  1  0  0  0  0
  7 40  1  0  0  0  0
  8  9  1  0  0  0  0
  8 41  1  0  0  0  0
  9 10  1  0  0  0  0
  9 26  2  0  0  0  0
 10 11  2  0  0  0  0
 11 12  1  0  0  0  0
 11 42  1  0  0  0  0
 12 13  1  0  0  0  0
 12 25  2  0  0  0  0
 13 14  2  0  0  0  0
 13 24  1  0  0  0  0
 14 15  1  0  0  0  0
 15 16  1  0  0  0  0
 15 17  1  0  0  0  0
 16 43  1  0  0  0  0
 16 44  1  0  0  0  0
 16 45  1  0  0  0  0
 17 18  1  0  0  0  0
 17 24  2  0  0  0  0
 18 19  2  0  0  0  0
 18 46  1  0  0  0  0
 19 20  1  0  0  0  0
 19 21  1  0  0  0  0
 21 22  2  0  0  0  0
 21 47  1  0  0  0  0
 22 23  1  0  0  0  0
 22 24  1  0  0  0  0
 25 26  1  0  0  0  0
 27 28  2  0  0  0  0
 27 29  1  0  0  0  0
 29 30  1  0  0  0  0
 29 34  1  0  0  0  0
 30 31  1  0  0  0  0
 30 48  1  0  0  0  0
 30 49  1  0  0  0  0
 31 32  1  0  0  0  0
 31 34  1  0  0  0  0
 31 50  1  0  0  0  0
 32 33  3  0  0  0  0
 34 51  1  0  0  0  0
 34 52  1  0  0  0  0
M  END
