
 OpenBabel03132512093D

 72 77  0  0  0  0  0  0  0  0999 V2000
    1.0314   -0.0866    0.0389 O   0  0  0  0  0  0  0  0  0  0  0  0
    2.5618   -0.0866    0.0389 S   0  0  0  0  0  0  0  0  0  0  0  0
    3.0720   -1.5167    0.2307 O   0  0  0  0  0  0  0  0  0  0  0  0
    3.1652    0.5626   -1.5393 C   0  0  0  0  0  0  0  0  0  0  0  0
    2.6585    1.9829   -1.7298 C   0  0  0  0  0  0  0  0  0  0  0  0
    3.1318    2.8005   -0.6697 O   0  0  0  0  0  0  0  0  0  0  0  0
    2.6585    2.2912    0.5684 C   0  0  0  0  0  0  0  0  0  0  0  0
    1.1385    2.2912    0.5684 C   0  0  0  0  0  0  0  0  0  0  0  0
    0.3948    1.1759    0.5680 C   0  0  0  0  0  0  0  0  0  0  0  0
   -0.9487    1.6253    0.5524 C   0  0  0  0  0  0  0  0  0  0  0  0
   -0.9160    2.9815    0.5472 C   0  0  0  0  0  0  0  0  0  0  0  0
   -2.1392    3.8833    0.5211 C   0  0  0  0  0  0  0  0  0  0  0  0
   -3.0839    3.8111    1.5628 C   0  0  0  0  0  0  0  0  0  0  0  0
   -4.1915    4.6125    1.5593 C   0  0  0  0  0  0  0  0  0  0  0  0
   -4.3887    5.5477    0.5188 C   0  0  0  0  0  0  0  0  0  0  0  0
   -5.4870    6.3692    0.5397 N   0  0  0  0  0  0  0  0  0  0  0  0
   -5.6070    7.2060   -0.4538 C   0  0  0  0  0  0  0  0  0  0  0  0
   -4.7618    7.3404   -1.5219 N   0  0  0  0  0  0  0  0  0  0  0  0
   -3.7151    6.5517   -1.5622 C   0  0  0  0  0  0  0  0  0  0  0  0
   -2.7946    6.6447   -2.7045 N   0  0  0  0  0  0  0  0  0  0  0  0
   -3.0539    7.6121   -3.7806 C   0  0  0  0  0  0  0  0  0  0  0  0
   -3.1046    8.9568   -3.4502 C   0  0  0  0  0  0  0  0  0  0  0  0
   -3.1803    9.9239   -4.4463 C   0  0  0  0  0  0  0  0  0  0  0  0
   -3.2275    9.5400   -5.7825 C   0  0  0  0  0  0  0  0  0  0  0  0
   -3.2952   10.5155   -6.8121 O   0  0  0  0  0  0  0  0  0  0  0  0
   -3.3429   10.1102   -8.1722 C   0  0  0  0  0  0  0  0  0  0  0  0
   -2.0949    9.3095   -8.5064 C   0  0  0  0  0  0  0  0  0  0  0  0
   -0.9301    9.9460   -8.8228 C   0  0  0  0  0  0  0  0  0  0  0  0
    0.1843    9.1843   -9.1409 C   0  0  0  0  0  0  0  0  0  0  0  0
    0.1167    7.7999   -9.1500 C   0  0  0  0  0  0  0  0  0  0  0  0
   -1.0508    7.2227   -8.8154 C   0  0  0  0  0  0  0  0  0  0  0  0
   -1.1218    5.8675   -8.8191 F   0  0  0  0  0  0  0  0  0  0  0  0
   -2.1613    7.9251   -8.4929 C   0  0  0  0  0  0  0  0  0  0  0  0
   -3.2075    8.1903   -6.0913 C   0  0  0  0  0  0  0  0  0  0  0  0
   -3.2841    7.7216   -7.7622 Cl  0  0  0  0  0  0  0  0  0  0  0  0
   -3.0914    7.2115   -5.1155 C   0  0  0  0  0  0  0  0  0  0  0  0
   -3.4448    5.6076   -0.5311 C   0  0  0  0  0  0  0  0  0  0  0  0
   -2.3151    4.7583   -0.5127 C   0  0  0  0  0  0  0  0  0  0  0  0
    0.3862    3.4195    0.5689 O   0  0  0  0  0  0  0  0  0  0  0  0
    3.1652    0.9555    1.3902 C   0  0  0  0  0  0  0  0  0  0  0  0
    3.5501    0.3945    2.5967 C   0  0  0  0  0  0  0  0  0  0  0  0
    3.5318    1.3017    3.6824 C   0  0  0  0  0  0  0  0  0  0  0  0
    3.5160    2.6165    3.5597 C   0  0  0  0  0  0  0  0  0  0  0  0
    3.1949    3.1082    2.3249 C   0  0  0  0  0  0  0  0  0  0  0  0
    3.0669    2.2715    1.2426 C   0  0  0  0  0  0  0  0  0  0  0  0
    4.2352    0.5626   -1.5393 H   0  0  0  0  0  0  0  0  0  0  0  0
    2.8085   -0.0535   -2.3382 H   0  0  0  0  0  0  0  0  0  0  0  0
    3.0152    2.3667   -2.6628 H   0  0  0  0  0  0  0  0  0  0  0  0
    1.5885    1.9829   -1.7298 H   0  0  0  0  0  0  0  0  0  0  0  0
    3.0152    1.2913    0.7025 H   0  0  0  0  0  0  0  0  0  0  0  0
    3.0152    2.9073    1.3673 H   0  0  0  0  0  0  0  0  0  0  0  0
    0.7414    0.1636    0.5774 H   0  0  0  0  0  0  0  0  0  0  0  0
   -1.8245    1.0106    0.5460 H   0  0  0  0  0  0  0  0  0  0  0  0
   -2.9331    3.1209    2.3664 H   0  0  0  0  0  0  0  0  0  0  0  0
   -4.9111    4.5312    2.3470 H   0  0  0  0  0  0  0  0  0  0  0  0
   -6.4564    7.8564   -0.4314 H   0  0  0  0  0  0  0  0  0  0  0  0
   -1.9759    6.0381   -2.7505 H   0  0  0  0  0  0  0  0  0  0  0  0
   -3.0855    9.2529   -2.4221 H   0  0  0  0  0  0  0  0  0  0  0  0
   -3.2021   10.9614   -4.1855 H   0  0  0  0  0  0  0  0  0  0  0  0
   -4.2096    9.5037   -8.3334 H   0  0  0  0  0  0  0  0  0  0  0  0
   -3.3909   10.9749   -8.8006 H   0  0  0  0  0  0  0  0  0  0  0  0
   -0.8774   11.0147   -8.8255 H   0  0  0  0  0  0  0  0  0  0  0  0
    1.1064    9.6707   -9.3819 H   0  0  0  0  0  0  0  0  0  0  0  0
    0.9679    7.2084   -9.4152 H   0  0  0  0  0  0  0  0  0  0  0  0
   -3.0700    7.4234   -8.2335 H   0  0  0  0  0  0  0  0  0  0  0  0
   -3.0322    6.1764   -5.3802 H   0  0  0  0  0  0  0  0  0  0  0  0
   -1.5993    4.8008   -1.3069 H   0  0  0  0  0  0  0  0  0  0  0  0
    3.8354   -0.6317    2.6985 H   0  0  0  0  0  0  0  0  0  0  0  0
    3.5307    0.8940    4.6717 H   0  0  0  0  0  0  0  0  0  0  0  0
    3.7423    3.2623    4.3823 H   0  0  0  0  0  0  0  0  0  0  0  0
    3.0410    4.1596    2.1997 H   0  0  0  0  0  0  0  0  0  0  0  0
    2.8865    2.6841    0.2720 H   0  0  0  0  0  0  0  0  0  0  0  0
  1  2  2  0  0  0  0
  2  3  2  0  0  0  0
  2  4  1  0  0  0  0
  2 40  1  0  0  0  0
  4  5  1  0  0  0  0
  4 46  1  0  0  0  0
  4 47  1  0  0  0  0
  5  6  1  0  0  0  0
  5 48  1  0  0  0  0
  5 49  1  0  0  0  0
  6  7  1  0  0  0  0
  7  8  1  0  0  0  0
  7 50  1  0  0  0  0
  7 51  1  0  0  0  0
  8  9  2  0  0  0  0
  8 39  1  0  0  0  0
  9 10  1  0  0  0  0
  9 52  1  0  0  0  0
 10 11  2  0  0  0  0
 10 53  1  0  0  0  0
 11 12  1  0  0  0  0
 11 39  1  0  0  0  0
 12 13  1  0  0  0  0
 12 38  2  0  0  0  0
 13 14  2  0  0  0  0
 13 54  1  0  0  0  0
 14 15  1  0  0  0  0
 14 55  1  0  0  0  0
 15 16  1  0  0  0  0
 15 37  2  0  0  0  0
 16 17  2  0  0  0  0
 17 18  1  0  0  0  0
 17 56  1  0  0  0  0
 18 19  2  0  0  0  0
 19 20  1  0  0  0  0
 19 37  1  0  0  0  0
 20 21  1  0  0  0  0
 20 57  1  0  0  0  0
 21 22  1  0  0  0  0
 21 36  2  0  0  0  0
 22 23  2  0  0  0  0
 22 58  1  0  0  0  0
 23 24  1  0  0  0  0
 23 59  1  0  0  0  0
 24 25  1  0  0  0  0
 24 34  2  0  0  0  0
 25 26  1  0  0  0  0
 26 27  1  0  0  0  0
 26 60  1  0  0  0  0
 26 61  1  0  0  0  0
 27 28  1  0  0  0  0
 27 33  2  0  0  0  0
 28 29  2  0  0  0  0
 28 62  1  0  0  0  0
 29 30  1  0  0  0  0
 29 63  1  0  0  0  0
 30 31  2  0  0  0  0
 30 64  1  0  0  0  0
 31 32  1  0  0  0  0
 31 33  1  0  0  0  0
 33 65  1  0  0  0  0
 34 35  1  0  0  0  0
 34 36  1  0  0  0  0
 36 66  1  0  0  0  0
 37 38  1  0  0  0  0
 38 67  1  0  0  0  0
 40 41  1  0  0  0  0
 40 45  2  0  0  0  0
 41 42  2  0  0  0  0
 41 68  1  0  0  0  0
 42 43  1  0  0  0  0
 42 69  1  0  0  0  0
 43 44  2  0  0  0  0
 43 70  1  0  0  0  0
 44 45  1  0  0  0  0
 44 71  1  0  0  0  0
 45 72  1  0  0  0  0
M  END
