REMARK  Name = 
REMARK  6 active torsions:
REMARK  status: ('A' for Active; 'I' for Inactive)
REMARK    1  A    between atoms: C_2  and  O_3
REMARK    2  A    between atoms: C_2  and  C_4
REMARK    3  A    between atoms: C_11  and  C_12
REMARK    4  A    between atoms: C_15  and  O_16
REMARK    5  A    between atoms: O_16  and  C_17
REMARK    6  A    between atoms: C_17  and  C_18
REMARK                            x       y       z     vdW  Elec       q    Type
REMARK                         _______ _______ _______ _____ _____    ______ ____
ROOT
ATOM      1  C   UNL     1       3.007   0.918   0.979  0.00  0.00    +0.000 A 
ATOM      2  C   UNL     1       3.982   1.771   0.515  0.00  0.00    +0.000 A 
ATOM      3  N   UNL     1       4.359   2.648   1.498  0.00  0.00    +0.000 N 
ATOM      4  C   UNL     1       3.664   2.347   2.647  0.00  0.00    +0.000 A 
ATOM      5  C   UNL     1       3.772   2.917   3.920  0.00  0.00    +0.000 A 
ATOM      6  C   UNL     1       2.986   2.352   4.905  0.00  0.00    +0.000 A 
ATOM      7 CL   UNL     1       3.086   2.988   6.527  0.00  0.00    +0.000 Cl
ATOM      8  C   UNL     1       2.123   1.267   4.673  0.00  0.00    +0.000 A 
ATOM      9  C   UNL     1       2.023   0.719   3.404  0.00  0.00    +0.000 A 
ATOM     10  C   UNL     1       2.794   1.262   2.361  0.00  0.00    +0.000 A 
ATOM     11  H   UNL     1       5.041   3.399   1.395  0.00  0.00    +0.000 HD
ENDROOT
BRANCH   8  12
ATOM     12  C   UNL     1       1.299   0.695   5.815  0.00  0.00    +0.000 A 
ATOM     13  C   UNL     1       1.380  -0.649   6.140  0.00  0.00    +0.000 A 
ATOM     14  C   UNL     1       0.304  -1.114   6.932  0.00  0.00    +0.000 A 
ATOM     15  C   UNL     1      -0.513  -0.335   7.616  0.00  0.00    +0.000 A 
ATOM     16  C   UNL     1      -0.498   0.994   7.295  0.00  0.00    +0.000 A 
ATOM     17  C   UNL     1       0.441   1.501   6.428  0.00  0.00    +0.000 A 
BRANCH  15  18
ATOM     18  O   UNL     1      -1.363  -0.849   8.632  0.00  0.00    +0.000 OA
BRANCH  18  19
ATOM     19  C   UNL     1      -2.227   0.024   9.344  0.00  0.00    +0.000 C 
BRANCH  19  20
ATOM     20  C   UNL     1      -1.402   1.083  10.057  0.00  0.00    +0.000 A 
ATOM     21  C   UNL     1      -1.779   2.414   9.860  0.00  0.00    +0.000 A 
ATOM     22  C   UNL     1      -1.109   3.388  10.589  0.00  0.00    +0.000 A 
ATOM     23  C   UNL     1      -0.120   3.006  11.466  0.00  0.00    +0.000 A 
ATOM     24  N   UNL     1       0.260   1.737  11.643  0.00  0.00    +0.000 NA
ATOM     25  C   UNL     1      -0.381   0.790  10.940  0.00  0.00    +0.000 A 
ENDBRANCH  19  20
ENDBRANCH  18  19
ENDBRANCH  15  18
ENDBRANCH   8  12
BRANCH   1  27
ATOM     26  O   UNL     1       0.976  -0.048   0.085  0.00  0.00    +0.000 OA
ATOM     27  C   UNL     1       2.247  -0.048   0.085  0.00  0.00    +0.000 C 
BRANCH  27  28
ATOM     28  O   UNL     1       2.957  -0.950  -0.751  0.00  0.00    +0.000 OA
ATOM     29  H   UNL     1       3.957  -0.950  -0.751  0.00  0.00    +0.000 HD
ENDBRANCH  27  28
ENDBRANCH   1  27
TORSDOF 6
