REMARK  Name = 
REMARK  7 active torsions:
REMARK  status: ('A' for Active; 'I' for Inactive)
REMARK    1  A    between atoms: C_1  and  C_2
REMARK    2  A    between atoms: C_2  and  C_3
REMARK    3  A    between atoms: C_2  and  N_4
REMARK    4  A    between atoms: C_2  and  C_28
REMARK    5  A    between atoms: C_5  and  C_7
REMARK    6  A    between atoms: N_13  and  C_14
REMARK    7  A    between atoms: C_17  and  O_18
REMARK                            x       y       z     vdW  Elec       q    Type
REMARK                         _______ _______ _______ _____ _____    ______ ____
ROOT
ATOM      1  C   UNL     1      -0.911  -0.385   3.504  0.00  0.00    +0.000 A 
ATOM      2  C   UNL     1       0.145   0.331   3.982  0.00  0.00    +0.000 A 
ATOM      3  C   UNL     1       0.898  -0.174   4.968  0.00  0.00    +0.000 A 
ATOM      4  C   UNL     1       0.634  -1.399   5.519  0.00  0.00    +0.000 A 
ATOM      5  N   UNL     1       1.473  -1.852   6.539  0.00  0.00    +0.000 NA
ATOM      6  C   UNL     1       1.274  -3.054   7.125  0.00  0.00    +0.000 A 
ATOM      7  N   UNL     1       2.174  -3.496   8.199  0.00  0.00    +0.000 N 
ATOM      8  C   UNL     1       0.220  -3.885   6.721  0.00  0.00    +0.000 A 
ATOM      9  N   UNL     1      -0.119  -5.095   7.190  0.00  0.00    +0.000 NA
ATOM     10  C   UNL     1      -1.165  -5.534   6.542  0.00  0.00    +0.000 A 
ATOM     11  C   UNL     1      -1.556  -4.585   5.594  0.00  0.00    +0.000 A 
ATOM     12  N   UNL     1      -0.682  -3.504   5.681  0.00  0.00    +0.000 N 
ATOM     13  C   UNL     1      -0.456  -2.195   5.051  0.00  0.00    +0.000 A 
ATOM     14  C   UNL     1      -1.224  -1.645   4.027  0.00  0.00    +0.000 A 
ATOM     15  H   UNL     1       2.943  -2.897   8.498  0.00  0.00    +0.000 HD
ENDROOT
BRANCH   7  16
ATOM     16  C   UNL     1       1.966  -4.801   8.842  0.00  0.00    +0.000 C 
ATOM     17  C   UNL     1       2.027  -6.055   7.983  0.00  0.00    +0.000 C 
ATOM     18  C   UNL     1       0.897  -6.106   6.956  0.00  0.00    +0.000 C 
ATOM     19  C   UNL     1      -0.437  -6.012   7.700  0.00  0.00    +0.000 C 
ATOM     20  C   UNL     1      -0.504  -4.754   8.534  0.00  0.00    +0.000 C 
ATOM     21  C   UNL     1       0.630  -4.665   9.542  0.00  0.00    +0.000 C 
BRANCH  19  22
ATOM     22  O   UNL     1      -1.567  -5.967   6.825  0.00  0.00    +0.000 OA
ATOM     23  H   UNL     1      -1.524  -5.139   6.267  0.00  0.00    +0.000 HD
ENDBRANCH  19  22
ENDBRANCH   7  16
BRANCH   1  25
ATOM     24  N   UNL     1      -0.936   0.724   1.164  0.00  0.00    +0.000 N 
ATOM     25  C   UNL     1      -1.671   0.179   2.314  0.00  0.00    +0.000 C 
ATOM     26  O   UNL     1      -2.942   0.179   2.314  0.00  0.00    +0.000 OA
ATOM     27  H   UNL     1      -1.446   1.103   0.366  0.00  0.00    +0.000 HD
BRANCH  24  29
ATOM     28  C   UNL     1       1.041  -0.090  -0.015  0.00  0.00    +0.000 C 
ATOM     29  C   UNL     1       0.534   0.724   1.164  0.00  0.00    +0.000 C 
ATOM     30  C   UNL     1       1.041   2.153   1.048  0.00  0.00    +0.000 C 
BRANCH  29  31
ATOM     31  C   UNL     1       1.041   0.111   2.459  0.00  0.00    +0.000 A 
ATOM     32  C   UNL     1       1.630   0.888   3.495  0.00  0.00    +0.000 A 
ATOM     33  C   UNL     1       2.219   0.240   4.593  0.00  0.00    +0.000 A 
ATOM     34  C   UNL     1       1.993  -1.024   4.801  0.00  0.00    +0.000 A 
ATOM     35  C   UNL     1       1.152  -1.738   3.937  0.00  0.00    +0.000 A 
ATOM     36  C   UNL     1       0.806  -1.184   2.680  0.00  0.00    +0.000 A 
ENDBRANCH  29  31
ENDBRANCH  24  29
ENDBRANCH   1  25
TORSDOF 5
