REMARK  Name = 
REMARK  5 active torsions:
REMARK  status: ('A' for Active; 'I' for Inactive)
REMARK    1  A    between atoms: C_1  and  O_2
REMARK    2  A    between atoms: O_2  and  C_3
REMARK    3  A    between atoms: C_12  and  C_14
REMARK    4  A    between atoms: C_23  and  C_24
REMARK    5  A    between atoms: C_24  and  O_26
REMARK                            x       y       z     vdW  Elec       q    Type
REMARK                         _______ _______ _______ _____ _____    ______ ____
ROOT
ATOM      1  C   UNL     1       0.898  -1.800  -1.535  0.00  0.00    +0.000 A 
ATOM      2  C   UNL     1       2.211  -1.736  -2.023  0.00  0.00    +0.000 A 
ATOM      3  C   UNL     1       2.476  -2.157  -3.296  0.00  0.00    +0.000 A 
ATOM      4  C   UNL     1       1.431  -2.643  -4.089  0.00  0.00    +0.000 A 
ATOM      5  C   UNL     1       0.151  -2.697  -3.591  0.00  0.00    +0.000 A 
ATOM      6  C   UNL     1      -0.098  -2.272  -2.316  0.00  0.00    +0.000 A 
ATOM      7  C   UNL     1      -0.673  -3.206  -4.555  0.00  0.00    +0.000 A 
ATOM      8  C   UNL     1       0.048  -3.479  -5.666  0.00  0.00    +0.000 A 
ATOM      9  N   UNL     1       1.392  -3.139  -5.410  0.00  0.00    +0.000 N 
ATOM     10  C   UNL     1       2.527  -3.273  -6.335  0.00  0.00    +0.000 C 
ATOM     11  O   UNL     1       2.342  -3.738  -7.503  0.00  0.00    +0.000 OA
ATOM     12  C   UNL     1      -0.527  -4.053  -6.937  0.00  0.00    +0.000 C 
ATOM     13  C   UNL     1      -1.909  -4.637  -6.622  0.00  0.00    +0.000 C 
ATOM     14  C   UNL     1      -2.736  -3.600  -5.857  0.00  0.00    +0.000 C 
ATOM     15  C   UNL     1      -2.162  -3.438  -4.441  0.00  0.00    +0.000 C 
ENDROOT
BRANCH  10  16
ATOM     16  C   UNL     1       3.920  -2.856  -5.894  0.00  0.00    +0.000 A 
ATOM     17  C   UNL     1       4.535  -3.480  -4.774  0.00  0.00    +0.000 A 
ATOM     18  C   UNL     1       5.679  -2.898  -4.202  0.00  0.00    +0.000 A 
ATOM     19  C   UNL     1       6.325  -1.969  -4.843  0.00  0.00    +0.000 A 
ATOM     20 CL   UNL     1       7.766  -1.223  -4.111  0.00  0.00    +0.000 Cl
ATOM     21  C   UNL     1       5.888  -1.554  -6.108  0.00  0.00    +0.000 A 
ATOM     22  C   UNL     1       4.590  -1.906  -6.551  0.00  0.00    +0.000 A 
ENDBRANCH  10  16
BRANCH   1  24
ATOM     23  C   UNL     1       1.029   0.048   0.083  0.00  0.00    +0.000 C 
ATOM     24  O   UNL     1       0.555  -1.242  -0.275  0.00  0.00    +0.000 OA
ENDBRANCH   1  24
BRANCH  14  25
ATOM     25  C   UNL     1      -2.680  -2.267  -6.584  0.00  0.00    +0.000 C 
ATOM     26  O   UNL     1      -3.751  -1.728  -7.006  0.00  0.00    +0.000 OA
BRANCH  25  27
ATOM     27  O   UNL     1      -1.432  -1.624  -6.793  0.00  0.00    +0.000 OA
ATOM     28  H   UNL     1      -1.395  -0.746  -7.272  0.00  0.00    +0.000 HD
ENDBRANCH  25  27
ENDBRANCH  14  25
TORSDOF 4
