REMARK  Name = 
REMARK  7 active torsions:
REMARK  status: ('A' for Active; 'I' for Inactive)
REMARK    1  A    between atoms: C_1  and  C_2
REMARK    2  A    between atoms: C_2  and  C_3
REMARK    3  A    between atoms: C_2  and  O_4
REMARK    4  A    between atoms: C_2  and  C_5
REMARK    5  A    between atoms: N_8  and  C_9
REMARK    6  A    between atoms: C_9  and  C_10
REMARK    7  A    between atoms: C_15  and  C_16
REMARK                            x       y       z     vdW  Elec       q    Type
REMARK                         _______ _______ _______ _____ _____    ______ ____
ROOT
ATOM      1  C   UNL     1      -1.266   3.531   0.698  0.00  0.00    +0.000 A 
ATOM      2  C   UNL     1      -0.584   2.641   1.496  0.00  0.00    +0.000 A 
ATOM      3  C   UNL     1      -1.129   2.359   2.772  0.00  0.00    +0.000 A 
ATOM      4  C   UNL     1      -2.518   2.350   2.840  0.00  0.00    +0.000 A 
ATOM      5  N   UNL     1      -3.182   1.712   3.785  0.00  0.00    +0.000 NA
ATOM      6  C   UNL     1      -4.504   1.733   3.799  0.00  0.00    +0.000 A 
ATOM      7  N   UNL     1      -5.206   2.378   2.889  0.00  0.00    +0.000 NA
ATOM      8  C   UNL     1      -4.616   3.048   1.904  0.00  0.00    +0.000 A 
ATOM      9  N   UNL     1      -5.414   3.762   0.898  0.00  0.00    +0.000 N 
ATOM     10  C   UNL     1      -6.359   4.853   1.200  0.00  0.00    +0.000 C 
ATOM     11  C   UNL     1      -7.740   4.468   0.719  0.00  0.00    +0.000 C 
ATOM     12  O   UNL     1      -7.734   4.181  -0.680  0.00  0.00    +0.000 OA
ATOM     13  C   UNL     1      -6.841   3.100  -0.950  0.00  0.00    +0.000 C 
ATOM     14  C   UNL     1      -5.421   3.450  -0.546  0.00  0.00    +0.000 C 
ATOM     15  C   UNL     1      -3.227   3.057   1.849  0.00  0.00    +0.000 A 
ATOM     16  N   UNL     1      -2.542   3.725   0.871  0.00  0.00    +0.000 NA
ENDROOT
BRANCH   6  17
ATOM     17  C   UNL     1      -5.239   0.987   4.901  0.00  0.00    +0.000 A 
ATOM     18  C   UNL     1      -6.064   0.026   4.542  0.00  0.00    +0.000 A 
ATOM     19  F   UNL     1      -6.340  -0.192   3.260  0.00  0.00    +0.000 F 
ATOM     20  C   UNL     1      -6.639  -0.756   5.538  0.00  0.00    +0.000 A 
ATOM     21  C   UNL     1      -5.948  -0.819   6.769  0.00  0.00    +0.000 A 
ATOM     22  C   UNL     1      -5.297   0.345   7.172  0.00  0.00    +0.000 A 
ATOM     23  N   UNL     1      -5.013   0.576   8.516  0.00  0.00    +0.000 N 
ATOM     24  C   UNL     1      -5.380  -0.363   9.476  0.00  0.00    +0.000 A 
ATOM     25  C   UNL     1      -4.286   2.436   6.637  0.00  0.00    +0.000 A 
ATOM     26  C   UNL     1      -4.957   1.222   6.251  0.00  0.00    +0.000 A 
ATOM     27  H   UNL     1      -4.535   1.432   8.796  0.00  0.00    +0.000 HD
ENDBRANCH   6  17
BRANCH   1  28
ATOM     28  C   UNL     1      -0.460   4.374  -0.277  0.00  0.00    +0.000 C 
BRANCH  28  32
ATOM     29  C   UNL     1       1.024   0.898  -2.275  0.00  0.00    +0.000 C 
ATOM     30  C   UNL     1       1.955   1.737  -1.403  0.00  0.00    +0.000 C 
ATOM     31  C   UNL     1       1.162   2.616  -0.459  0.00  0.00    +0.000 C 
ATOM     32  N   UNL     1       0.257   3.494  -1.210  0.00  0.00    +0.000 NA
ATOM     33  C   UNL     1      -0.707   2.679  -1.949  0.00  0.00    +0.000 C 
ATOM     34  C   UNL     1      -0.004   1.793  -2.965  0.00  0.00    +0.000 C 
BRANCH  29  36
ATOM     35  C   UNL     1       1.024   0.072   0.065  0.00  0.00    +0.000 C 
ATOM     36  C   UNL     1       0.517  -0.191  -1.343  0.00  0.00    +0.000 C 
ATOM     37  C   UNL     1       1.024  -1.542  -1.820  0.00  0.00    +0.000 C 
BRANCH  36  38
ATOM     38  O   UNL     1      -0.903  -0.191  -1.343  0.00  0.00    +0.000 OA
ATOM     39  H   UNL     1      -1.236  -0.907  -0.730  0.00  0.00    +0.000 HD
ENDBRANCH  36  38
ENDBRANCH  29  36
ENDBRANCH  28  32
ENDBRANCH   1  28
TORSDOF 5
