
 OpenBabel03132514253D

 54 56  0  0  0  0  0  0  0  0999 V2000
    1.0651   -0.0357   -0.0670 C   0  0  0  0  0  0  0  0  0  0  0  0
    0.5917    1.3000    0.0238 O   0  0  0  0  0  0  0  0  0  0  0  0
    1.0651    1.8892    1.2260 C   0  0  0  0  0  0  0  0  0  0  0  0
    0.5584    1.0901    2.4156 C   0  0  0  0  0  0  0  0  0  0  0  0
    1.0651   -0.3396    2.3184 C   0  0  0  0  0  0  0  0  0  0  0  0
    1.9102   -0.8941    3.3857 N   0  0  0  0  0  0  0  0  0  0  0  0
    0.7580   -1.0557    1.3143 O   0  0  0  0  0  0  0  0  0  0  0  0
    1.0484    1.7001    3.6601 N   0  0  0  0  0  0  0  0  0  0  0  0
    0.5584    0.9273    4.8105 C   0  0  0  0  0  0  0  0  0  0  0  0
    2.5184    1.7001    3.6600 C   0  0  0  0  0  0  0  0  0  0  0  0
    3.0251    0.2703    3.5628 C   0  0  0  0  0  0  0  0  0  0  0  0
    2.1414   -0.7650    3.6744 C   0  0  0  0  0  0  0  0  0  0  0  0
    2.6061   -2.0978    3.5994 C   0  0  0  0  0  0  0  0  0  0  0  0
    1.7651   -3.2420    3.7050 C   0  0  0  0  0  0  0  0  0  0  0  0
    0.3169   -3.0510    3.8700 N   0  0  0  0  0  0  0  0  0  0  0  0
   -0.5704   -4.2177    3.9810 C   0  0  0  0  0  0  0  0  0  0  0  0
   -1.5785   -4.4174    3.0605 C   0  0  0  0  0  0  0  0  0  0  0  0
   -2.4239   -5.5159    3.1483 C   0  0  0  0  0  0  0  0  0  0  0  0
   -2.2426   -6.4270    4.1875 C   0  0  0  0  0  0  0  0  0  0  0  0
   -1.2316   -6.2260    5.1083 C   0  0  0  0  0  0  0  0  0  0  0  0
   -0.9710   -7.3728    6.3776 Cl  0  0  0  0  0  0  0  0  0  0  0  0
   -0.4127   -5.1252    4.9968 C   0  0  0  0  0  0  0  0  0  0  0  0
    0.5844   -4.9500    5.8879 F   0  0  0  0  0  0  0  0  0  0  0  0
    2.2456   -4.4611    3.6591 N   0  0  0  0  0  0  0  0  0  0  0  0
    3.5958   -4.5963    3.4805 C   0  0  0  0  0  0  0  0  0  0  0  0
    4.4684   -3.6357    3.3472 N   0  0  0  0  0  0  0  0  0  0  0  0
    3.9825   -2.3545    3.4080 C   0  0  0  0  0  0  0  0  0  0  0  0
    4.8663   -1.2610    3.2691 C   0  0  0  0  0  0  0  0  0  0  0  0
    4.3955    0.0194    3.3591 C   0  0  0  0  0  0  0  0  0  0  0  0
    5.2992    1.1089    3.2457 O   0  0  0  0  0  0  0  0  0  0  0  0
    4.8190    2.4421    3.3378 C   0  0  0  0  0  0  0  0  0  0  0  0
    0.7084   -0.4797   -0.9729 H   0  0  0  0  0  0  0  0  0  0  0  0
    0.7084   -0.5982    0.7704 H   0  0  0  0  0  0  0  0  0  0  0  0
    2.1351   -0.0357   -0.0670 H   0  0  0  0  0  0  0  0  0  0  0  0
    2.1351    1.8892    1.2259 H   0  0  0  0  0  0  0  0  0  0  0  0
    0.7084    2.8957    1.2944 H   0  0  0  0  0  0  0  0  0  0  0  0
   -0.5116    1.0901    2.4156 H   0  0  0  0  0  0  0  0  0  0  0  0
    2.2502   -1.8536    3.3205 H   0  0  0  0  0  0  0  0  0  0  0  0
    2.1566   -0.3194    4.1915 H   0  0  0  0  0  0  0  0  0  0  0  0
    0.9151   -0.0792    4.7421 H   0  0  0  0  0  0  0  0  0  0  0  0
    0.9151    1.3713    5.7164 H   0  0  0  0  0  0  0  0  0  0  0  0
   -0.5116    0.9273    4.8105 H   0  0  0  0  0  0  0  0  0  0  0  0
    2.8751    2.2626    2.8226 H   0  0  0  0  0  0  0  0  0  0  0  0
    2.8751    2.1440    4.5659 H   0  0  0  0  0  0  0  0  0  0  0  0
    1.0997   -0.5677    3.8183 H   0  0  0  0  0  0  0  0  0  0  0  0
   -0.0722   -2.1089    3.9075 H   0  0  0  0  0  0  0  0  0  0  0  0
   -1.7113   -3.7139    2.2653 H   0  0  0  0  0  0  0  0  0  0  0  0
   -3.2026   -5.6607    2.4289 H   0  0  0  0  0  0  0  0  0  0  0  0
   -2.8841   -7.2792    4.2722 H   0  0  0  0  0  0  0  0  0  0  0  0
    3.9759   -5.5959    3.4465 H   0  0  0  0  0  0  0  0  0  0  0  0
    5.9072   -1.4355    3.0931 H   0  0  0  0  0  0  0  0  0  0  0  0
    4.1035    2.6179    2.5620 H   0  0  0  0  0  0  0  0  0  0  0  0
    4.3552    2.5890    4.2908 H   0  0  0  0  0  0  0  0  0  0  0  0
    5.6366    3.1238    3.2302 H   0  0  0  0  0  0  0  0  0  0  0  0
  1  2  1  0  0  0  0
  1 32  1  0  0  0  0
  1 33  1  0  0  0  0
  1 34  1  0  0  0  0
  2  3  1  0  0  0  0
  3  4  1  0  0  0  0
  3 35  1  0  0  0  0
  3 36  1  0  0  0  0
  4  5  1  0  0  0  0
  4  8  1  0  0  0  0
  4 37  1  0  0  0  0
  5  6  1  0  0  0  0
  5  7  2  0  0  0  0
  6 38  1  0  0  0  0
  6 39  1  0  0  0  0
  8  9  1  0  0  0  0
  8 10  1  0  0  0  0
  9 40  1  0  0  0  0
  9 41  1  0  0  0  0
  9 42  1  0  0  0  0
 10 11  1  0  0  0  0
 10 43  1  0  0  0  0
 10 44  1  0  0  0  0
 11 12  1  0  0  0  0
 11 29  2  0  0  0  0
 12 13  2  0  0  0  0
 12 45  1  0  0  0  0
 13 14  1  0  0  0  0
 13 27  1  0  0  0  0
 14 15  1  0  0  0  0
 14 24  2  0  0  0  0
 15 16  1  0  0  0  0
 15 46  1  0  0  0  0
 16 17  1  0  0  0  0
 16 22  2  0  0  0  0
 17 18  2  0  0  0  0
 17 47  1  0  0  0  0
 18 19  1  0  0  0  0
 18 48  1  0  0  0  0
 19 20  2  0  0  0  0
 19 49  1  0  0  0  0
 20 21  1  0  0  0  0
 20 22  1  0  0  0  0
 22 23  1  0  0  0  0
 24 25  1  0  0  0  0
 25 26  2  0  0  0  0
 25 50  1  0  0  0  0
 26 27  1  0  0  0  0
 27 28  2  0  0  0  0
 28 29  1  0  0  0  0
 28 51  1  0  0  0  0
 29 30  1  0  0  0  0
 30 31  1  0  0  0  0
 31 52  1  0  0  0  0
 31 53  1  0  0  0  0
 31 54  1  0  0  0  0
M  END
