
 OpenBabel03132512093D

 57 59  0  0  0  0  0  0  0  0999 V2000
   -3.1740    0.0140    0.0540 C   0  0  0  0  0  0  0  0  0  0  0  0
   -1.9870   -0.0210   -0.0010 C   0  0  0  0  0  0  0  0  0  0  0  0
   -0.5480   -0.0180   -0.0420 C   0  0  0  0  0  0  0  0  0  0  0  0
    0.1440    1.1920   -0.0440 C   0  0  0  0  0  0  0  0  0  0  0  0
    1.5310    1.2060    0.0070 C   0  0  0  0  0  0  0  0  0  0  0  0
    2.2830    0.0200    0.0600 C   0  0  0  0  0  0  0  0  0  0  0  0
    1.5680   -1.1800    0.0070 C   0  0  0  0  0  0  0  0  0  0  0  0
    2.3095   -2.4493    0.0031 N   0  0  0  0  0  0  0  0  0  0  0  0
    3.7786   -2.4424    0.0543 C   0  0  0  0  0  0  0  0  0  0  0  0
    4.4527   -2.9891   -0.9284 N   0  0  0  0  0  0  0  0  0  0  0  0
    5.8185   -2.9408   -0.8546 C   0  0  0  0  0  0  0  0  0  0  0  0
    6.5332   -2.4032    0.0952 N   0  0  0  0  0  0  0  0  0  0  0  0
    5.8417   -1.8404    1.1377 C   0  0  0  0  0  0  0  0  0  0  0  0
    6.5464   -1.2361    2.2027 C   0  0  0  0  0  0  0  0  0  0  0  0
    5.8664   -0.7000    3.2606 C   0  0  0  0  0  0  0  0  0  0  0  0
    4.4588   -0.7156    3.2946 C   0  0  0  0  0  0  0  0  0  0  0  0
    3.7737   -0.1527    4.4037 O   0  0  0  0  0  0  0  0  0  0  0  0
    4.5080    0.4235    5.4739 C   0  0  0  0  0  0  0  0  0  0  0  0
    5.4092   -0.6309    6.0955 C   0  0  0  0  0  0  0  0  0  0  0  0
    6.3734   -1.1568    5.0448 C   0  0  0  0  0  0  0  0  0  0  0  0
    7.2225   -0.0114    4.5178 C   0  0  0  0  0  0  0  0  0  0  0  0
    7.9826    0.5851    5.6256 N   0  0  0  0  0  0  0  0  0  0  0  0
    8.8037    1.6927    5.1160 C   0  0  0  0  0  0  0  0  0  0  0  0
    7.9026    2.7472    4.4943 C   0  0  0  0  0  0  0  0  0  0  0  0
    6.7544    3.3733    5.7456 S   0  0  0  0  0  0  0  0  0  0  0  0
    7.6903    4.1078    7.1096 C   0  0  0  0  0  0  0  0  0  0  0  0
    5.8470    4.4350    5.1196 O   0  0  0  0  0  0  0  0  0  0  0  0
    5.8995    2.2201    6.2762 O   0  0  0  0  0  0  0  0  0  0  0  0
    3.7482   -1.2687    2.2678 C   0  0  0  0  0  0  0  0  0  0  0  0
    4.4290   -1.8423    1.1699 C   0  0  0  0  0  0  0  0  0  0  0  0
    0.1820   -1.2130   -0.0420 C   0  0  0  0  0  0  0  0  0  0  0  0
   -4.2424    0.0455    0.1035 H   0  0  0  0  0  0  0  0  0  0  0  0
   -0.3966    2.1145   -0.0850 H   0  0  0  0  0  0  0  0  0  0  0  0
    2.0420    2.1461    0.0059 H   0  0  0  0  0  0  0  0  0  0  0  0
    3.3501    0.0348    0.1371 H   0  0  0  0  0  0  0  0  0  0  0  0
    1.8046   -3.3347   -0.0353 H   0  0  0  0  0  0  0  0  0  0  0  0
    6.3573   -3.3918   -1.6616 H   0  0  0  0  0  0  0  0  0  0  0  0
    7.6155   -1.1979    2.1812 H   0  0  0  0  0  0  0  0  0  0  0  0
    6.4101   -0.2635    4.0722 H   0  0  0  0  0  0  0  0  0  0  0  0
    5.1057    1.2297    5.1029 H   0  0  0  0  0  0  0  0  0  0  0  0
    3.8293    0.7936    6.2136 H   0  0  0  0  0  0  0  0  0  0  0  0
    5.9625   -0.1968    6.9019 H   0  0  0  0  0  0  0  0  0  0  0  0
    4.8115   -1.4372    6.4665 H   0  0  0  0  0  0  0  0  0  0  0  0
    7.0078   -1.8990    5.4824 H   0  0  0  0  0  0  0  0  0  0  0  0
    5.8201   -1.5910    4.2384 H   0  0  0  0  0  0  0  0  0  0  0  0
    7.9012   -0.3816    3.7781 H   0  0  0  0  0  0  0  0  0  0  0  0
    6.5881    0.7308    4.0802 H   0  0  0  0  0  0  0  0  0  0  0  0
    7.3356    0.9379    6.3307 H   0  0  0  0  0  0  0  0  0  0  0  0
    9.3570    2.1269    5.9223 H   0  0  0  0  0  0  0  0  0  0  0  0
    9.4825    1.3226    4.3763 H   0  0  0  0  0  0  0  0  0  0  0  0
    8.5002    3.5534    4.1233 H   0  0  0  0  0  0  0  0  0  0  0  0
    7.3492    2.3130    3.6879 H   0  0  0  0  0  0  0  0  0  0  0  0
    8.2880    4.9141    6.7387 H   0  0  0  0  0  0  0  0  0  0  0  0
    7.0116    4.4780    7.8493 H   0  0  0  0  0  0  0  0  0  0  0  0
    8.3247    3.3655    7.5472 H   0  0  0  0  0  0  0  0  0  0  0  0
    2.6786   -1.2677    2.2943 H   0  0  0  0  0  0  0  0  0  0  0  0
   -0.3295   -2.1521   -0.0798 H   0  0  0  0  0  0  0  0  0  0  0  0
  1  2  3  0  0  0  0
  1 32  1  0  0  0  0
  2  3  1  0  0  0  0
  3  4  1  0  0  0  0
  3 31  2  0  0  0  0
  4  5  2  0  0  0  0
  4 33  1  0  0  0  0
  5  6  1  0  0  0  0
  5 34  1  0  0  0  0
  6  7  2  0  0  0  0
  6 35  1  0  0  0  0
  7  8  1  0  0  0  0
  7 31  1  0  0  0  0
  8  9  1  0  0  0  0
  8 36  1  0  0  0  0
  9 10  1  0  0  0  0
  9 30  2  0  0  0  0
 10 11  2  0  0  0  0
 11 12  1  0  0  0  0
 11 37  1  0  0  0  0
 12 13  2  0  0  0  0
 13 14  1  0  0  0  0
 13 30  1  0  0  0  0
 14 15  2  0  0  0  0
 14 38  1  0  0  0  0
 15 16  1  0  0  0  0
 15 39  1  0  0  0  0
 16 17  1  0  0  0  0
 16 29  2  0  0  0  0
 17 18  1  0  0  0  0
 18 19  1  0  0  0  0
 18 40  1  0  0  0  0
 18 41  1  0  0  0  0
 19 20  1  0  0  0  0
 19 42  1  0  0  0  0
 19 43  1  0  0  0  0
 20 21  1  0  0  0  0
 20 44  1  0  0  0  0
 20 45  1  0  0  0  0
 21 22  1  0  0  0  0
 21 46  1  0  0  0  0
 21 47  1  0  0  0  0
 22 23  1  0  0  0  0
 22 48  1  0  0  0  0
 23 24  1  0  0  0  0
 23 49  1  0  0  0  0
 23 50  1  0  0  0  0
 24 25  1  0  0  0  0
 24 51  1  0  0  0  0
 24 52  1  0  0  0  0
 25 26  1  0  0  0  0
 25 27  2  0  0  0  0
 25 28  2  0  0  0  0
 26 53  1  0  0  0  0
 26 54  1  0  0  0  0
 26 55  1  0  0  0  0
 29 30  1  0  0  0  0
 29 56  1  0  0  0  0
 31 57  1  0  0  0  0
M  END
