REMARK  Name = 
REMARK  10 active torsions:
REMARK  status: ('A' for Active; 'I' for Inactive)
REMARK    1  A    between atoms: C_1  and  N_2
REMARK    2  A    between atoms: C_3  and  C_5
REMARK    3  A    between atoms: C_5  and  C_6
REMARK    4  A    between atoms: C_5  and  N_7
REMARK    5  A    between atoms: N_7  and  C_8
REMARK    6  A    between atoms: N_7  and  C_9
REMARK    7  A    between atoms: C_9  and  C_10
REMARK    8  A    between atoms: N_14  and  C_15
REMARK    9  A    between atoms: C_28  and  O_29
REMARK   10  A    between atoms: O_29  and  C_30
REMARK                            x       y       z     vdW  Elec       q    Type
REMARK                         _______ _______ _______ _____ _____    ______ ____
ROOT
ATOM      1  C   UNL     1       0.674   1.062   1.663  0.00  0.00    +0.000 A 
ATOM      2  C   UNL     1       1.456   0.030   2.098  0.00  0.00    +0.000 A 
ATOM      3  C   UNL     1       2.618   0.300   2.856  0.00  0.00    +0.000 A 
ATOM      4  C   UNL     1       3.495  -0.706   3.354  0.00  0.00    +0.000 A 
ATOM      5  N   UNL     1       3.213  -2.115   3.046  0.00  0.00    +0.000 N 
ATOM      6  N   UNL     1       4.547  -0.410   4.079  0.00  0.00    +0.000 NA
ATOM      7  C   UNL     1       4.788   0.915   4.322  0.00  0.00    +0.000 A 
ATOM      8  N   UNL     1       4.080   1.929   3.907  0.00  0.00    +0.000 NA
ATOM      9  C   UNL     1       2.968   1.635   3.160  0.00  0.00    +0.000 A 
ATOM     10  C   UNL     1       2.152   2.680   2.672  0.00  0.00    +0.000 A 
ATOM     11  C   UNL     1       1.025   2.395   1.952  0.00  0.00    +0.000 A 
ATOM     12  H   UNL     1       2.399  -2.362   2.484  0.00  0.00    +0.000 HD
ENDROOT
BRANCH   5  13
ATOM     13  C   UNL     1       4.105  -3.170   3.550  0.00  0.00    +0.000 A 
ATOM     14  C   UNL     1       4.819  -4.010   2.721  0.00  0.00    +0.000 A 
ATOM     15  C   UNL     1       5.689  -4.961   3.239  0.00  0.00    +0.000 A 
ATOM     16  C   UNL     1       5.837  -5.061   4.622  0.00  0.00    +0.000 A 
ATOM     17  C   UNL     1       5.121  -4.217   5.451  0.00  0.00    +0.000 A 
ATOM     18 CL   UNL     1       5.328  -4.303   7.166  0.00  0.00    +0.000 Cl
ATOM     19  C   UNL     1       4.264  -3.288   4.907  0.00  0.00    +0.000 A 
ATOM     20  F   UNL     1       3.587  -2.455   5.724  0.00  0.00    +0.000 F 
ENDBRANCH   5  13
BRANCH  11  21
ATOM     21  O   UNL     1       0.200   3.454   1.492  0.00  0.00    +0.000 OA
ATOM     22  C   UNL     1      -0.973   3.167   0.744  0.00  0.00    +0.000 C 
ENDBRANCH  11  21
BRANCH   1  23
ATOM     23  C   UNL     1      -0.593   0.775   0.874  0.00  0.00    +0.000 C 
BRANCH  23  24
ATOM     24  N   UNL     1      -1.438  -0.163   1.627  0.00  0.00    +0.000 NA
ATOM     25  C   UNL     1      -1.793   0.432   2.924  0.00  0.00    +0.000 C 
BRANCH  24  26
ATOM     26  C   UNL     1      -0.703  -1.416   1.848  0.00  0.00    +0.000 C 
ATOM     27  C   UNL     1       0.564  -1.129   2.637  0.00  0.00    +0.000 C 
BRANCH  26  30
ATOM     28  C   UNL     1       1.000   0.055  -0.084  0.00  0.00    +0.000 C 
ATOM     29  N   UNL     1       0.509  -1.285  -0.437  0.00  0.00    +0.000 N 
ATOM     30  C   UNL     1      -0.336  -2.031   0.507  0.00  0.00    +0.000 C 
ATOM     31  O   UNL     1      -0.759  -3.190   0.202  0.00  0.00    +0.000 OA
ATOM     32  H   UNL     1       0.756  -1.698  -1.336  0.00  0.00    +0.000 HD
ENDBRANCH  26  30
ENDBRANCH  24  26
ENDBRANCH  23  24
ENDBRANCH   1  23
TORSDOF 6
