
 OpenBabel03132512093D

 54 58  0  0  0  0  0  0  0  0999 V2000
   -1.7250    2.0220    0.0060 O   0  0  0  0  0  0  0  0  0  0  0  0
   -1.3990    0.8330    0.0140 C   0  0  0  0  0  0  0  0  0  0  0  0
   -2.3160   -0.2890    0.0000 C   0  0  0  0  0  0  0  0  0  0  0  0
   -1.7870   -1.5980   -0.0420 C   0  0  0  0  0  0  0  0  0  0  0  0
   -2.7246   -2.7251   -0.1490 N   0  0  0  0  0  0  0  0  0  0  0  0
   -3.7228   -3.0686   -1.1782 C   0  0  0  0  0  0  0  0  0  0  0  0
   -5.0355   -3.4108   -0.5099 C   0  0  0  0  0  0  0  0  0  0  0  0
   -4.8742   -4.4870    0.4139 O   0  0  0  0  0  0  0  0  0  0  0  0
   -3.9315   -4.1245    1.4231 C   0  0  0  0  0  0  0  0  0  0  0  0
   -2.5712   -3.8288    0.8203 C   0  0  0  0  0  0  0  0  0  0  0  0
   -0.4660   -1.8680    0.0110 O   0  0  0  0  0  0  0  0  0  0  0  0
    0.4530   -0.8340    0.0160 C   0  0  0  0  0  0  0  0  0  0  0  0
    1.7880   -1.2070    0.0160 C   0  0  0  0  0  0  0  0  0  0  0  0
    2.7380   -0.2040   -0.0040 C   0  0  0  0  0  0  0  0  0  0  0  0
    4.2132   -0.5704   -0.0085 C   0  0  0  0  0  0  0  0  0  0  0  0
    4.7222   -1.3343   -1.0459 C   0  0  0  0  0  0  0  0  0  0  0  0
    6.0152   -1.8516   -0.7960 C   0  0  0  0  0  0  0  0  0  0  0  0
    6.8372   -1.3970    0.1323 C   0  0  0  0  0  0  0  0  0  0  0  0
    8.2184   -1.7266    0.1350 O   0  0  0  0  0  0  0  0  0  0  0  0
    9.0681   -1.2163    1.1519 C   0  0  0  0  0  0  0  0  0  0  0  0
    9.0533    0.3030    1.1095 C   0  0  0  0  0  0  0  0  0  0  0  0
   10.1905    1.0146    0.7649 C   0  0  0  0  0  0  0  0  0  0  0  0
   10.1057    2.3998    1.0410 C   0  0  0  0  0  0  0  0  0  0  0  0
    8.9782    3.0528    1.2565 C   0  0  0  0  0  0  0  0  0  0  0  0
    7.8754    2.2902    1.5244 C   0  0  0  0  0  0  0  0  0  0  0  0
    7.9160    0.9221    1.4036 C   0  0  0  0  0  0  0  0  0  0  0  0
    6.2868   -0.5918    1.0905 C   0  0  0  0  0  0  0  0  0  0  0  0
    4.9897   -0.1513    0.9837 C   0  0  0  0  0  0  0  0  0  0  0  0
    2.3660    1.1330   -0.0200 C   0  0  0  0  0  0  0  0  0  0  0  0
    1.0310    1.4770   -0.0130 C   0  0  0  0  0  0  0  0  0  0  0  0
    0.0440    0.4840    0.0090 C   0  0  0  0  0  0  0  0  0  0  0  0
   -3.3737   -0.1289    0.0211 H   0  0  0  0  0  0  0  0  0  0  0  0
   -3.3791   -3.9099   -1.7429 H   0  0  0  0  0  0  0  0  0  0  0  0
   -3.8624   -2.2338   -1.8329 H   0  0  0  0  0  0  0  0  0  0  0  0
   -5.3797   -2.5508    0.0255 H   0  0  0  0  0  0  0  0  0  0  0  0
   -5.7453   -3.6955   -1.2583 H   0  0  0  0  0  0  0  0  0  0  0  0
   -3.8304   -4.9442    2.1033 H   0  0  0  0  0  0  0  0  0  0  0  0
   -4.2842   -3.2528    1.9336 H   0  0  0  0  0  0  0  0  0  0  0  0
   -2.1874   -4.6993    0.3306 H   0  0  0  0  0  0  0  0  0  0  0  0
   -1.8882   -3.5406    1.5919 H   0  0  0  0  0  0  0  0  0  0  0  0
    2.0735   -2.2381    0.0310 H   0  0  0  0  0  0  0  0  0  0  0  0
    4.1862   -1.5166   -1.9538 H   0  0  0  0  0  0  0  0  0  0  0  0
    6.3504   -2.6678   -1.4012 H   0  0  0  0  0  0  0  0  0  0  0  0
    8.7209   -1.5499    2.1075 H   0  0  0  0  0  0  0  0  0  0  0  0
   10.0661   -1.5679    0.9925 H   0  0  0  0  0  0  0  0  0  0  0  0
   11.0548    0.5583    0.3294 H   0  0  0  0  0  0  0  0  0  0  0  0
   11.0185    2.9569    1.0777 H   0  0  0  0  0  0  0  0  0  0  0  0
    8.9303    4.1212    1.2233 H   0  0  0  0  0  0  0  0  0  0  0  0
    6.9678    2.7657    1.8326 H   0  0  0  0  0  0  0  0  0  0  0  0
    7.0231    0.3505    1.5478 H   0  0  0  0  0  0  0  0  0  0  0  0
    6.8747   -0.3006    1.9359 H   0  0  0  0  0  0  0  0  0  0  0  0
    4.6019    0.5356    1.7065 H   0  0  0  0  0  0  0  0  0  0  0  0
    3.1152    1.8967   -0.0378 H   0  0  0  0  0  0  0  0  0  0  0  0
    0.7475    2.5087   -0.0244 H   0  0  0  0  0  0  0  0  0  0  0  0
  1  2  2  0  0  0  0
  2  3  1  0  0  0  0
  2 31  1  0  0  0  0
  3  4  2  0  0  0  0
  3 32  1  0  0  0  0
  4  5  1  0  0  0  0
  4 11  1  0  0  0  0
  5  6  1  0  0  0  0
  5 10  1  0  0  0  0
  6  7  1  0  0  0  0
  6 33  1  0  0  0  0
  6 34  1  0  0  0  0
  7  8  1  0  0  0  0
  7 35  1  0  0  0  0
  7 36  1  0  0  0  0
  8  9  1  0  0  0  0
  9 10  1  0  0  0  0
  9 37  1  0  0  0  0
  9 38  1  0  0  0  0
 10 39  1  0  0  0  0
 10 40  1  0  0  0  0
 11 12  1  0  0  0  0
 12 13  1  0  0  0  0
 12 31  2  0  0  0  0
 13 14  2  0  0  0  0
 13 41  1  0  0  0  0
 14 15  1  0  0  0  0
 14 29  1  0  0  0  0
 15 16  1  0  0  0  0
 15 28  2  0  0  0  0
 16 17  2  0  0  0  0
 16 42  1  0  0  0  0
 17 18  1  0  0  0  0
 17 43  1  0  0  0  0
 18 19  1  0  0  0  0
 18 27  2  0  0  0  0
 19 20  1  0  0  0  0
 20 21  1  0  0  0  0
 20 44  1  0  0  0  0
 20 45  1  0  0  0  0
 21 22  1  0  0  0  0
 21 26  2  0  0  0  0
 22 23  2  0  0  0  0
 22 46  1  0  0  0  0
 23 24  1  0  0  0  0
 23 47  1  0  0  0  0
 24 25  2  0  0  0  0
 24 48  1  0  0  0  0
 25 26  1  0  0  0  0
 25 49  1  0  0  0  0
 26 50  1  0  0  0  0
 27 28  1  0  0  0  0
 27 51  1  0  0  0  0
 28 52  1  0  0  0  0
 29 30  2  0  0  0  0
 29 53  1  0  0  0  0
 30 31  1  0  0  0  0
 30 54  1  0  0  0  0
M  END
