REMARK  Name = 
REMARK  7 active torsions:
REMARK  status: ('A' for Active; 'I' for Inactive)
REMARK    1  A    between atoms: C_2  and  C_3
REMARK    2  A    between atoms: C_3  and  O_4
REMARK    3  A    between atoms: O_4  and  C_5
REMARK    4  A    between atoms: C_9  and  O_10
REMARK    5  A    between atoms: O_10  and  C_11
REMARK    6  A    between atoms: C_15  and  C_16
REMARK    7  A    between atoms: C_19  and  C_20
REMARK                            x       y       z     vdW  Elec       q    Type
REMARK                         _______ _______ _______ _____ _____    ______ ____
ROOT
ATOM      1  C   UNL     1       1.316  -2.777  -1.129  0.00  0.00    +0.000 A 
ATOM      2  N   UNL     1       2.228  -2.787  -0.202  0.00  0.00    +0.000 NA
ATOM      3  C   UNL     1       3.080  -1.615  -0.398  0.00  0.00    +0.000 A 
ATOM      4  N   UNL     1       4.198  -1.107   0.272  0.00  0.00    +0.000 NA
ATOM      5  C   UNL     1       4.793   0.055  -0.176  0.00  0.00    +0.000 A 
ATOM      6  C   UNL     1       4.280   0.726  -1.287  0.00  0.00    +0.000 A 
ATOM      7 CL   UNL     1       5.049   2.232  -1.843  0.00  0.00    +0.000 Cl
ATOM      8  C   UNL     1       3.183   0.232  -1.957  0.00  0.00    +0.000 A 
ATOM      9  C   UNL     1       2.571  -0.938  -1.520  0.00  0.00    +0.000 A 
ATOM     10  N   UNL     1       1.484  -1.665  -1.960  0.00  0.00    +0.000 N 
ATOM     11  H   UNL     1       0.898  -1.430  -2.761  0.00  0.00    +0.000 HD
ENDROOT
BRANCH   5  12
ATOM     12  C   UNL     1       6.012   0.607   0.543  0.00  0.00    +0.000 A 
ATOM     13  C   UNL     1       7.166  -0.149   0.601  0.00  0.00    +0.000 A 
ATOM     14  C   UNL     1       8.253   0.319   1.194  0.00  0.00    +0.000 A 
ATOM     15  C   UNL     1       8.278   1.521   1.745  0.00  0.00    +0.000 A 
ATOM     16  C   UNL     1       7.160   2.332   1.725  0.00  0.00    +0.000 A 
ATOM     17  C   UNL     1       6.002   1.871   1.117  0.00  0.00    +0.000 A 
BRANCH  15  18
ATOM     18  C   UNL     1       9.553   2.016   2.409  0.00  0.00    +0.000 A 
ATOM     19  C   UNL     1      10.705   2.154   1.660  0.00  0.00    +0.000 A 
ATOM     20  C   UNL     1      11.821   2.604   2.211  0.00  0.00    +0.000 A 
ATOM     21  C   UNL     1      11.875   2.944   3.489  0.00  0.00    +0.000 A 
ATOM     22  C   UNL     1      10.760   2.832   4.297  0.00  0.00    +0.000 A 
ATOM     23  C   UNL     1       9.575   2.357   3.753  0.00  0.00    +0.000 A 
ENDBRANCH  15  18
ENDBRANCH   5  12
BRANCH   1  24
ATOM     24  O   UNL     1       0.293  -3.750  -1.281  0.00  0.00    +0.000 OA
BRANCH  24  29
ATOM     25  C   UNL     1      -1.134  -1.486   2.156  0.00  0.00    +0.000 C 
ATOM     26  C   UNL     1      -0.154  -1.075   1.334  0.00  0.00    +0.000 C 
ATOM     27  O   UNL     1      -0.451  -1.493  -0.028  0.00  0.00    +0.000 OA
ATOM     28  C   UNL     1      -1.404  -2.699   0.083  0.00  0.00    +0.000 C 
ATOM     29  C   UNL     1      -0.640  -3.968  -0.234  0.00  0.00    +0.000 C 
ATOM     30  C   UNL     1      -0.008  -4.348   0.910  0.00  0.00    +0.000 C 
ATOM     31  O   UNL     1      -0.796  -3.952   2.068  0.00  0.00    +0.000 OA
ATOM     32  C   UNL     1      -1.690  -2.785   1.608  0.00  0.00    +0.000 C 
BRANCH  25  33
ATOM     33  O   UNL     1      -1.607  -0.149   2.228  0.00  0.00    +0.000 OA
BRANCH  33  34
ATOM     34  C   UNL     1      -1.134   0.583   1.107  0.00  0.00    +0.000 C 
BRANCH  34  36
ATOM     35  C   UNL     1       1.066   0.050   0.056  0.00  0.00    +0.000 C 
ATOM     36  C   UNL     1       0.386   0.583   1.107  0.00  0.00    +0.000 C 
ENDBRANCH  34  36
ENDBRANCH  33  34
ENDBRANCH  25  33
ENDBRANCH  24  29
ENDBRANCH   1  24
TORSDOF 7
