REMARK  Name = 
REMARK  6 active torsions:
REMARK  status: ('A' for Active; 'I' for Inactive)
REMARK    1  A    between atoms: C_1  and  O_2
REMARK    2  A    between atoms: O_2  and  C_3
REMARK    3  A    between atoms: C_6  and  C_7
REMARK    4  A    between atoms: C_17  and  C_18
REMARK    5  A    between atoms: C_20  and  C_21
REMARK    6  A    between atoms: C_23  and  C_24
REMARK                            x       y       z     vdW  Elec       q    Type
REMARK                         _______ _______ _______ _____ _____    ______ ____
ROOT
ATOM      1  C   UNL     1       1.637  -6.220  -1.844  0.00  0.00    +0.000 A 
ATOM      2  C   UNL     1       0.910  -6.637  -2.953  0.00  0.00    +0.000 A 
ATOM      3  C   UNL     1       1.064  -7.930  -3.432  0.00  0.00    +0.000 A 
ATOM      4  C   UNL     1       1.972  -8.815  -2.864  0.00  0.00    +0.000 A 
ATOM      5  C   UNL     1       2.734  -8.408  -1.776  0.00  0.00    +0.000 A 
ATOM      6  C   UNL     1       2.512  -7.121  -1.284  0.00  0.00    +0.000 A 
ATOM      7  N   UNL     1       3.302  -6.923  -0.147  0.00  0.00    +0.000 N 
ATOM      8  C   UNL     1       4.045  -8.022   0.134  0.00  0.00    +0.000 C 
ATOM      9  O   UNL     1       4.827  -8.120   1.081  0.00  0.00    +0.000 OA
ATOM     10  C   UNL     1       3.738  -9.039  -0.917  0.00  0.00    +0.000 C 
ATOM     11  C   UNL     1       4.382 -10.218  -0.953  0.00  0.00    +0.000 C 
ATOM     12  H   UNL     1       3.317  -6.063   0.401  0.00  0.00    +0.000 HD
ENDROOT
BRANCH  11  13
ATOM     13  C   UNL     1       4.102 -11.205  -2.074  0.00  0.00    +0.000 A 
ATOM     14  N   UNL     1       4.273 -11.012  -3.424  0.00  0.00    +0.000 N 
ATOM     15  C   UNL     1       4.079 -12.179  -4.101  0.00  0.00    +0.000 A 
ATOM     16  C   UNL     1       4.171 -12.242  -5.586  0.00  0.00    +0.000 C 
ATOM     17  C   UNL     1       3.798 -13.151  -3.172  0.00  0.00    +0.000 A 
ATOM     18  C   UNL     1       3.801 -12.530  -1.879  0.00  0.00    +0.000 A 
ATOM     19  C   UNL     1       3.563 -13.225  -0.562  0.00  0.00    +0.000 C 
ATOM     20  H   UNL     1       4.513 -10.120  -3.858  0.00  0.00    +0.000 HD
ENDBRANCH  11  13
BRANCH   1  24
ATOM     21  C   UNL     1       0.941  -2.500   0.068  0.00  0.00    +0.000 A 
ATOM     22  C   UNL     1       2.231  -2.798  -0.324  0.00  0.00    +0.000 A 
ATOM     23  C   UNL     1       2.493  -4.014  -0.960  0.00  0.00    +0.000 A 
ATOM     24  C   UNL     1       1.426  -4.883  -1.153  0.00  0.00    +0.000 A 
ATOM     25  C   UNL     1       0.176  -4.517  -0.709  0.00  0.00    +0.000 A 
ATOM     26  N   UNL     1      -0.084  -3.346  -0.119  0.00  0.00    +0.000 NA
BRANCH  21  28
ATOM     27  C   UNL     1       1.071  -0.047  -0.053  0.00  0.00    +0.000 C 
ATOM     28  O   UNL     1       0.598  -1.223   0.586  0.00  0.00    +0.000 OA
ENDBRANCH  21  28
ENDBRANCH   1  24
TORSDOF 3
