REMARK  Name = 
REMARK  7 active torsions:
REMARK  status: ('A' for Active; 'I' for Inactive)
REMARK    1  A    between atoms: C_1  and  O_2
REMARK    2  A    between atoms: O_2  and  C_3
REMARK    3  A    between atoms: N_10  and  C_11
REMARK    4  A    between atoms: C_21  and  C_22
REMARK    5  A    between atoms: C_22  and  N_23
REMARK    6  A    between atoms: N_26  and  C_27
REMARK    7  A    between atoms: C_29  and  C_30
REMARK                            x       y       z     vdW  Elec       q    Type
REMARK                         _______ _______ _______ _____ _____    ______ ____
ROOT
ATOM      1  C   UNL     1       0.928   2.431   0.337  0.00  0.00    +0.000 A 
ATOM      2  C   UNL     1      -0.103   3.250   0.705  0.00  0.00    +0.000 A 
ATOM      3  C   UNL     1       0.131   4.347   1.564  0.00  0.00    +0.000 A 
ATOM      4  N   UNL     1      -0.915   5.144   1.952  0.00  0.00    +0.000 NA
ATOM      5  C   UNL     1      -0.625   6.140   2.744  0.00  0.00    +0.000 A 
ATOM      6  N   UNL     1       0.614   6.482   3.215  0.00  0.00    +0.000 NA
ATOM      7  C   UNL     1       1.625   5.737   2.840  0.00  0.00    +0.000 A 
ATOM      8  N   UNL     1       2.977   6.083   3.302  0.00  0.00    +0.000 N 
ATOM      9  C   UNL     1       1.452   4.601   1.998  0.00  0.00    +0.000 A 
ATOM     10  C   UNL     1       2.504   3.749   1.593  0.00  0.00    +0.000 A 
ATOM     11  C   UNL     1       2.240   2.681   0.783  0.00  0.00    +0.000 A 
ATOM     12  H   UNL     1       3.775   5.513   3.019  0.00  0.00    +0.000 HD
ENDROOT
BRANCH   8  13
ATOM     13  C   UNL     1       3.180   7.251   4.171  0.00  0.00    +0.000 A 
ATOM     14  C   UNL     1       3.884   8.336   3.691  0.00  0.00    +0.000 A 
ATOM     15  C   UNL     1       3.983   9.510   4.427  0.00  0.00    +0.000 A 
ATOM     16  C   UNL     1       3.358   9.583   5.670  0.00  0.00    +0.000 A 
ATOM     17  C   UNL     1       2.653   8.495   6.150  0.00  0.00    +0.000 A 
ATOM     18 CL   UNL     1       1.839   8.590   7.673  0.00  0.00    +0.000 Cl
ATOM     19  C   UNL     1       2.576   7.344   5.399  0.00  0.00    +0.000 A 
ATOM     20  F   UNL     1       1.868   6.296   5.866  0.00  0.00    +0.000 F 
ENDBRANCH   8  13
BRANCH   1  22
ATOM     21  C   UNL     1       1.058  -0.011   0.081  0.00  0.00    +0.000 C 
ATOM     22  O   UNL     1       0.585   1.249  -0.371  0.00  0.00    +0.000 OA
ENDBRANCH   1  22
BRANCH  11  23
ATOM     23  C   UNL     1       3.370   1.757   0.360  0.00  0.00    +0.000 C 
BRANCH  23  24
ATOM     24  N   UNL     1       3.475   1.766  -1.095  0.00  0.00    +0.000 NA
ATOM     25  C   UNL     1       4.563   0.923  -1.546  0.00  0.00    +0.000 C 
ATOM     26  C   UNL     1       4.620   0.853  -3.064  0.00  0.00    +0.000 C 
ATOM     27  N   UNL     1       4.676   2.179  -3.666  0.00  0.00    +0.000 NA
ATOM     28  C   UNL     1       6.029   2.721  -3.468  0.00  0.00    +0.000 C 
ATOM     29  C   UNL     1       3.729   3.110  -3.111  0.00  0.00    +0.000 C 
ATOM     30  C   UNL     1       3.740   3.103  -1.599  0.00  0.00    +0.000 C 
BRANCH  30  31
ATOM     31  C   UNL     1       2.656   4.042  -1.096  0.00  0.00    +0.000 C 
ATOM     32  N   UNL     1       3.015   5.195  -0.257  0.00  0.00    +0.000 N 
ATOM     33  O   UNL     1       1.441   3.830  -1.399  0.00  0.00    +0.000 OA
ATOM     34  H   UNL     1       2.288   5.826   0.081  0.00  0.00    +0.000 HD
ATOM     35  H   UNL     1       3.991   5.365  -0.014  0.00  0.00    +0.000 HD
ENDBRANCH  30  31
ENDBRANCH  23  24
ENDBRANCH  11  23
TORSDOF 5
