
 OpenBabel03132512083D

 70 75  0  0  0  0  0  0  0  0999 V2000
    0.9283   -0.0594   -0.0365 C   0  0  0  0  0  0  0  0  0  0  0  0
    0.4216   -1.2308    0.7892 C   0  0  0  0  0  0  0  0  0  0  0  0
    0.9116   -1.1057    2.1694 N   0  0  0  0  0  0  0  0  0  0  0  0
    0.4216   -2.2385    2.9679 C   0  0  0  0  0  0  0  0  0  0  0  0
    2.6716   -1.1057    2.1694 S   0  0  0  0  0  0  0  0  0  0  0  0
    3.2750   -2.6545    1.4530 C   0  0  0  0  0  0  0  0  0  0  0  0
    3.1818    0.0737    1.3382 O   0  0  0  0  0  0  0  0  0  0  0  0
    3.1967   -0.9717    3.6485 N   0  0  0  0  0  0  0  0  0  0  0  0
    4.6419   -0.9474    3.9160 C   0  0  0  0  0  0  0  0  0  0  0  0
    5.1541   -1.7104    4.9524 C   0  0  0  0  0  0  0  0  0  0  0  0
    6.4873   -1.3864    5.2982 C   0  0  0  0  0  0  0  0  0  0  0  0
    7.3174   -0.7081    4.5270 C   0  0  0  0  0  0  0  0  0  0  0  0
    8.8143   -0.6819    4.7897 C   0  0  0  0  0  0  0  0  0  0  0  0
    9.5272   -1.8695    4.7777 C   0  0  0  0  0  0  0  0  0  0  0  0
   10.8311   -1.7608    5.3162 C   0  0  0  0  0  0  0  0  0  0  0  0
   11.4791   -0.6226    5.4855 C   0  0  0  0  0  0  0  0  0  0  0  0
   12.9769   -0.5841    5.7414 C   0  0  0  0  0  0  0  0  0  0  0  0
   13.8472   -1.1111    4.8080 N   0  0  0  0  0  0  0  0  0  0  0  0
   15.2237   -1.0796    5.0512 C   0  0  0  0  0  0  0  0  0  0  0  0
   16.3945   -1.5342    4.3028 N   0  0  0  0  0  0  0  0  0  0  0  0
   17.4525   -1.2499    5.0043 C   0  0  0  0  0  0  0  0  0  0  0  0
   18.7875   -1.5350    4.6133 O   0  0  0  0  0  0  0  0  0  0  0  0
   19.0422   -2.1774    3.3729 C   0  0  0  0  0  0  0  0  0  0  0  0
   18.5637   -1.4182    2.3740 C   0  0  0  0  0  0  0  0  0  0  0  0
   17.1591   -1.7271    2.1542 O   0  0  0  0  0  0  0  0  0  0  0  0
   16.9333   -3.1495    2.7012 C   0  0  0  0  0  0  0  0  0  0  0  0
   16.8040   -4.1149    1.5414 C   0  0  0  0  0  0  0  0  0  0  0  0
   16.0891   -3.5233    0.4665 O   0  0  0  0  0  0  0  0  0  0  0  0
   18.0674   -4.4490    1.1594 C   0  0  0  0  0  0  0  0  0  0  0  0
   18.9558   -4.4290    2.3115 O   0  0  0  0  0  0  0  0  0  0  0  0
   18.3017   -3.4994    3.3511 C   0  0  0  0  0  0  0  0  0  0  0  0
   17.0852   -0.6232    6.1989 N   0  0  0  0  0  0  0  0  0  0  0  0
   15.7104   -0.5115    6.2417 C   0  0  0  0  0  0  0  0  0  0  0  0
   14.8192    0.0152    7.1695 C   0  0  0  0  0  0  0  0  0  0  0  0
   13.4659   -0.0165    6.9182 C   0  0  0  0  0  0  0  0  0  0  0  0
   12.3312    0.6724    8.1041 Cl  0  0  0  0  0  0  0  0  0  0  0  0
   10.7302    0.5193    5.4182 C   0  0  0  0  0  0  0  0  0  0  0  0
    9.4138    0.4790    5.0265 C   0  0  0  0  0  0  0  0  0  0  0  0
    6.7579   -0.0305    3.4795 C   0  0  0  0  0  0  0  0  0  0  0  0
    5.4317   -0.1944    3.1595 C   0  0  0  0  0  0  0  0  0  0  0  0
    0.5716    0.8562    0.3870 H   0  0  0  0  0  0  0  0  0  0  0  0
    0.5716   -0.1505   -1.0411 H   0  0  0  0  0  0  0  0  0  0  0  0
    1.9983   -0.0594   -0.0365 H   0  0  0  0  0  0  0  0  0  0  0  0
   -0.6484   -1.2308    0.7892 H   0  0  0  0  0  0  0  0  0  0  0  0
    0.7783   -2.1464    0.3657 H   0  0  0  0  0  0  0  0  0  0  0  0
    0.7783   -3.1541    2.5444 H   0  0  0  0  0  0  0  0  0  0  0  0
    0.7783   -2.1475    3.9726 H   0  0  0  0  0  0  0  0  0  0  0  0
   -0.6484   -2.2385    2.9679 H   0  0  0  0  0  0  0  0  0  0  0  0
    2.9183   -2.7456    0.4484 H   0  0  0  0  0  0  0  0  0  0  0  0
    4.3450   -2.6545    1.4531 H   0  0  0  0  0  0  0  0  0  0  0  0
    2.9183   -3.4791    2.0342 H   0  0  0  0  0  0  0  0  0  0  0  0
    4.5925   -2.4755    5.4466 H   0  0  0  0  0  0  0  0  0  0  0  0
    6.8481   -1.7138    6.2509 H   0  0  0  0  0  0  0  0  0  0  0  0
    9.1281   -2.7858    4.3957 H   0  0  0  0  0  0  0  0  0  0  0  0
   11.3266   -2.6636    5.6065 H   0  0  0  0  0  0  0  0  0  0  0  0
   20.0950   -2.3270    3.2543 H   0  0  0  0  0  0  0  0  0  0  0  0
   18.6631   -0.3852    2.6347 H   0  0  0  0  0  0  0  0  0  0  0  0
   19.1161   -1.6173    1.4796 H   0  0  0  0  0  0  0  0  0  0  0  0
   16.0771   -3.2049    3.3405 H   0  0  0  0  0  0  0  0  0  0  0  0
   16.2696   -4.9894    1.8489 H   0  0  0  0  0  0  0  0  0  0  0  0
   16.5689   -2.7014    0.1594 H   0  0  0  0  0  0  0  0  0  0  0  0
   18.4145   -3.7421    0.4351 H   0  0  0  0  0  0  0  0  0  0  0  0
   18.0612   -5.4306    0.7335 H   0  0  0  0  0  0  0  0  0  0  0  0
   18.2718   -3.9447    4.3236 H   0  0  0  0  0  0  0  0  0  0  0  0
   17.7289   -0.3008    6.9215 H   0  0  0  0  0  0  0  0  0  0  0  0
   15.1848    0.4450    8.0786 H   0  0  0  0  0  0  0  0  0  0  0  0
   11.1756    1.4579    5.6743 H   0  0  0  0  0  0  0  0  0  0  0  0
    8.8668    1.3914    4.9111 H   0  0  0  0  0  0  0  0  0  0  0  0
    7.3614    0.6369    2.9006 H   0  0  0  0  0  0  0  0  0  0  0  0
    5.0318    0.2893    2.2928 H   0  0  0  0  0  0  0  0  0  0  0  0
  1  2  1  0  0  0  0
  1 41  1  0  0  0  0
  1 42  1  0  0  0  0
  1 43  1  0  0  0  0
  2  3  1  0  0  0  0
  2 44  1  0  0  0  0
  2 45  1  0  0  0  0
  3  4  1  0  0  0  0
  3  5  1  0  0  0  0
  4 46  1  0  0  0  0
  4 47  1  0  0  0  0
  4 48  1  0  0  0  0
  5  6  1  0  0  0  0
  5  7  2  0  0  0  0
  5  8  2  0  0  0  0
  6 49  1  0  0  0  0
  6 50  1  0  0  0  0
  6 51  1  0  0  0  0
  8  9  1  0  0  0  0
  9 10  1  0  0  0  0
  9 40  2  0  0  0  0
 10 11  2  0  0  0  0
 10 52  1  0  0  0  0
 11 12  1  0  0  0  0
 11 53  1  0  0  0  0
 12 13  1  0  0  0  0
 12 39  2  0  0  0  0
 13 14  1  0  0  0  0
 13 38  2  0  0  0  0
 14 15  2  0  0  0  0
 14 54  1  0  0  0  0
 15 16  1  0  0  0  0
 15 55  1  0  0  0  0
 16 17  1  0  0  0  0
 16 37  2  0  0  0  0
 17 18  1  0  0  0  0
 17 35  2  0  0  0  0
 18 19  2  0  0  0  0
 19 20  1  0  0  0  0
 19 33  1  0  0  0  0
 20 21  2  0  0  0  0
 21 22  1  0  0  0  0
 21 32  1  0  0  0  0
 22 23  1  0  0  0  0
 23 24  1  0  0  0  0
 23 31  1  0  0  0  0
 23 56  1  0  0  0  0
 24 25  1  0  0  0  0
 24 57  1  0  0  0  0
 24 58  1  0  0  0  0
 25 26  1  0  0  0  0
 26 27  1  0  0  0  0
 26 31  1  0  0  0  0
 26 59  1  0  0  0  0
 27 28  1  0  0  0  0
 27 29  1  0  0  0  0
 27 60  1  0  0  0  0
 28 61  1  0  0  0  0
 29 30  1  0  0  0  0
 29 62  1  0  0  0  0
 29 63  1  0  0  0  0
 30 31  1  0  0  0  0
 31 64  1  0  0  0  0
 32 33  1  0  0  0  0
 32 65  1  0  0  0  0
 33 34  2  0  0  0  0
 34 35  1  0  0  0  0
 34 66  1  0  0  0  0
 35 36  1  0  0  0  0
 37 38  1  0  0  0  0
 37 67  1  0  0  0  0
 38 68  1  0  0  0  0
 39 40  1  0  0  0  0
 39 69  1  0  0  0  0
 40 70  1  0  0  0  0
M  END
