REMARK  Name = 
REMARK  6 active torsions:
REMARK  status: ('A' for Active; 'I' for Inactive)
REMARK    1  A    between atoms: C_2  and  O_3
REMARK    2  A    between atoms: C_2  and  C_4
REMARK    3  A    between atoms: C_11  and  C_12
REMARK    4  A    between atoms: C_15  and  C_16
REMARK    5  A    between atoms: C_16  and  C_17
REMARK    6  A    between atoms: C_17  and  O_18
REMARK                            x       y       z     vdW  Elec       q    Type
REMARK                         _______ _______ _______ _____ _____    ______ ____
ROOT
ATOM      1  C   UNL     1       2.947   0.109  -1.337  0.00  0.00    +0.000 A 
ATOM      2  C   UNL     1       3.982  -0.587  -1.707  0.00  0.00    +0.000 A 
ATOM      3  N   UNL     1       4.427  -0.161  -2.962  0.00  0.00    +0.000 N 
ATOM      4  C   UNL     1       3.616   0.867  -3.400  0.00  0.00    +0.000 A 
ATOM      5  C   UNL     1       3.594   1.648  -4.549  0.00  0.00    +0.000 A 
ATOM      6  C   UNL     1       2.629   2.618  -4.703  0.00  0.00    +0.000 A 
ATOM      7  F   UNL     1       2.606   3.356  -5.809  0.00  0.00    +0.000 F 
ATOM      8  C   UNL     1       1.676   2.834  -3.707  0.00  0.00    +0.000 A 
ATOM      9  C   UNL     1       1.683   2.067  -2.559  0.00  0.00    +0.000 A 
ATOM     10  F   UNL     1       0.769   2.270  -1.614  0.00  0.00    +0.000 F 
ATOM     11  C   UNL     1       2.655   1.075  -2.395  0.00  0.00    +0.000 A 
ATOM     12  H   UNL     1       5.222  -0.547  -3.472  0.00  0.00    +0.000 HD
ENDROOT
BRANCH   8  13
ATOM     13  C   UNL     1       0.626   3.918  -3.886  0.00  0.00    +0.000 A 
ATOM     14  C   UNL     1       0.530   4.964  -2.990  0.00  0.00    +0.000 A 
ATOM     15  C   UNL     1      -0.387   5.906  -3.146  0.00  0.00    +0.000 A 
ATOM     16  C   UNL     1      -1.234   5.888  -4.161  0.00  0.00    +0.000 A 
ATOM     17  C   UNL     1      -1.194   4.872  -5.096  0.00  0.00    +0.000 A 
ATOM     18  C   UNL     1      -0.251   3.864  -4.960  0.00  0.00    +0.000 A 
BRANCH  16  19
ATOM     19  C   UNL     1      -2.264   6.997  -4.300  0.00  0.00    +0.000 C 
ATOM     20  C   UNL     1      -3.107   7.715  -5.356  0.00  0.00    +0.000 C 
ATOM     21  C   UNL     1      -3.785   6.827  -4.309  0.00  0.00    +0.000 C 
BRANCH  19  22
ATOM     22  C   UNL     1      -1.087   7.502  -3.480  0.00  0.00    +0.000 C 
BRANCH  22  23
ATOM     23  O   UNL     1      -0.943   6.701  -2.316  0.00  0.00    +0.000 OA
ATOM     24  H   UNL     1      -1.779   6.755  -1.769  0.00  0.00    +0.000 HD
ENDBRANCH  22  23
ENDBRANCH  19  22
ENDBRANCH  16  19
ENDBRANCH   8  13
BRANCH   1  26
ATOM     25  O   UNL     1       0.916  -0.045  -0.030  0.00  0.00    +0.000 OA
ATOM     26  C   UNL     1       2.187  -0.045  -0.030  0.00  0.00    +0.000 C 
BRANCH  26  27
ATOM     27  O   UNL     1       2.897  -0.190   1.191  0.00  0.00    +0.000 OA
ATOM     28  H   UNL     1       3.897  -0.190   1.191  0.00  0.00    +0.000 HD
ENDBRANCH  26  27
ENDBRANCH   1  26
TORSDOF 6
