REMARK  Name = 
REMARK  9 active torsions:
REMARK  status: ('A' for Active; 'I' for Inactive)
REMARK    1  A    between atoms: C_1  and  O_2
REMARK    2  A    between atoms: O_2  and  C_3
REMARK    3  A    between atoms: N_10  and  C_11
REMARK    4  A    between atoms: C_21  and  C_22
REMARK    5  A    between atoms: C_22  and  N_23
REMARK    6  A    between atoms: N_23  and  C_24
REMARK    7  A    between atoms: N_23  and  C_25
REMARK    8  A    between atoms: C_25  and  C_26
REMARK    9  A    between atoms: N_30  and  C_31
REMARK                            x       y       z     vdW  Elec       q    Type
REMARK                         _______ _______ _______ _____ _____    ______ ____
ROOT
ATOM      1  C   UNL     1       0.933   2.352   0.760  0.00  0.00    +0.000 A 
ATOM      2  C   UNL     1      -0.093   3.051   1.332  0.00  0.00    +0.000 A 
ATOM      3  C   UNL     1       0.152   3.893   2.440  0.00  0.00    +0.000 A 
ATOM      4  N   UNL     1      -0.888   4.568   3.027  0.00  0.00    +0.000 NA
ATOM      5  C   UNL     1      -0.589   5.330   4.043  0.00  0.00    +0.000 A 
ATOM      6  N   UNL     1       0.655   5.539   4.575  0.00  0.00    +0.000 NA
ATOM      7  C   UNL     1       1.661   4.911   4.015  0.00  0.00    +0.000 A 
ATOM      8  N   UNL     1       3.018   5.127   4.538  0.00  0.00    +0.000 N 
ATOM      9  C   UNL     1       1.477   4.027   2.914  0.00  0.00    +0.000 A 
ATOM     10  C   UNL     1       2.523   3.304   2.296  0.00  0.00    +0.000 A 
ATOM     11  C   UNL     1       2.249   2.478   1.244  0.00  0.00    +0.000 A 
ATOM     12  H   UNL     1       3.811   4.646   4.114  0.00  0.00    +0.000 HD
ENDROOT
BRANCH   8  13
ATOM     13  C   UNL     1       3.231   6.035   5.674  0.00  0.00    +0.000 A 
ATOM     14  C   UNL     1       3.929   7.210   5.482  0.00  0.00    +0.000 A 
ATOM     15  C   UNL     1       4.031   8.158   6.491  0.00  0.00    +0.000 A 
ATOM     16  C   UNL     1       3.414   7.911   7.716  0.00  0.00    +0.000 A 
ATOM     17  C   UNL     1       2.715   6.734   7.907  0.00  0.00    +0.000 A 
ATOM     18 CL   UNL     1       1.910   6.435   9.410  0.00  0.00    +0.000 Cl
ATOM     19  C   UNL     1       2.635   5.811   6.889  0.00  0.00    +0.000 A 
ATOM     20  F   UNL     1       1.932   4.676   7.078  0.00  0.00    +0.000 F 
ENDBRANCH   8  13
BRANCH   1  22
ATOM     21  C   UNL     1       1.063   0.039  -0.067  0.00  0.00    +0.000 C 
ATOM     22  O   UNL     1       0.590   1.371  -0.207  0.00  0.00    +0.000 OA
ENDBRANCH   1  22
BRANCH  11  23
ATOM     23  C   UNL     1       3.373   1.690   0.591  0.00  0.00    +0.000 C 
BRANCH  23  24
ATOM     24  N   UNL     1       4.381   2.619   0.063  0.00  0.00    +0.000 NA
ATOM     25  C   UNL     1       5.468   1.857  -0.569  0.00  0.00    +0.000 C 
BRANCH  24  26
ATOM     26  C   UNL     1       3.759   3.503  -0.934  0.00  0.00    +0.000 C 
ATOM     27  C   UNL     1       2.255   3.773  -0.756  0.00  0.00    +0.000 C 
ATOM     28  N   UNL     1       2.545   5.222  -1.180  0.00  0.00    +0.000 NA
ATOM     29  C   UNL     1       2.437   5.473  -2.624  0.00  0.00    +0.000 C 
ATOM     30  C   UNL     1       3.979   5.004  -0.671  0.00  0.00    +0.000 C 
BRANCH  26  31
ATOM     31  C   UNL     1       4.287   2.797  -2.172  0.00  0.00    +0.000 C 
ATOM     32  N   UNL     1       5.142   1.609  -2.032  0.00  0.00    +0.000 N 
ATOM     33  O   UNL     1       3.990   3.234  -3.328  0.00  0.00    +0.000 OA
ATOM     34  H   UNL     1       5.497   1.136  -2.863  0.00  0.00    +0.000 HD
ATOM     35  H   UNL     1       5.381   1.259  -1.105  0.00  0.00    +0.000 HD
ENDBRANCH  26  31
ENDBRANCH  24  26
ENDBRANCH  23  24
ENDBRANCH  11  23
TORSDOF 6
