REMARK  Name = 
REMARK  4 active torsions:
REMARK  status: ('A' for Active; 'I' for Inactive)
REMARK    1  A    between atoms: C_2  and  O_3
REMARK    2  A    between atoms: C_2  and  C_4
REMARK    3  A    between atoms: C_11  and  C_12
REMARK    4  A    between atoms: C_15  and  C_16
REMARK                            x       y       z     vdW  Elec       q    Type
REMARK                         _______ _______ _______ _____ _____    ______ ____
ROOT
ATOM      1  C   UNL     1       3.078  -0.999   0.716  0.00  0.00    +0.000 A 
ATOM      2  N   UNL     1       4.028  -0.865   1.593  0.00  0.00    +0.000 NA
ATOM      3  N   UNL     1       4.344  -2.105   2.156  0.00  0.00    +0.000 N 
ATOM      4  C   UNL     1       3.536  -3.071   1.591  0.00  0.00    +0.000 A 
ATOM      5  C   UNL     1       3.417  -4.445   1.768  0.00  0.00    +0.000 A 
ATOM      6  C   UNL     1       2.487  -5.154   1.040  0.00  0.00    +0.000 A 
ATOM      7 CL   UNL     1       2.330  -6.910   1.282  0.00  0.00    +0.000 Cl
ATOM      8  C   UNL     1       1.669  -4.507   0.115  0.00  0.00    +0.000 A 
ATOM      9  C   UNL     1       1.772  -3.143  -0.073  0.00  0.00    +0.000 A 
ATOM     10  C   UNL     1       2.709  -2.413   0.664  0.00  0.00    +0.000 A 
ATOM     11  H   UNL     1       5.055  -2.269   2.869  0.00  0.00    +0.000 HD
ENDROOT
BRANCH   8  12
ATOM     12  C   UNL     1       0.657  -5.306  -0.690  0.00  0.00    +0.000 A 
ATOM     13  C   UNL     1      -0.355  -6.026   0.005  0.00  0.00    +0.000 A 
ATOM     14  C   UNL     1      -1.051  -7.049  -0.657  0.00  0.00    +0.000 A 
ATOM     15  C   UNL     1      -0.973  -7.158  -1.951  0.00  0.00    +0.000 A 
ATOM     16  C   UNL     1      -0.203  -6.247  -2.687  0.00  0.00    +0.000 A 
ATOM     17  C   UNL     1       0.729  -5.417  -2.017  0.00  0.00    +0.000 A 
BRANCH  15  18
ATOM     18  C   UNL     1      -1.718  -8.273  -2.666  0.00  0.00    +0.000 C 
ATOM     19  C   UNL     1      -0.473  -8.911  -3.268  0.00  0.00    +0.000 C 
ATOM     20  C   UNL     1      -0.252  -8.089  -4.541  0.00  0.00    +0.000 C 
ATOM     21  O   UNL     1      -1.568  -7.632  -4.949  0.00  0.00    +0.000 OA
ATOM     22  C   UNL     1      -2.522  -7.881  -3.909  0.00  0.00    +0.000 C 
ENDBRANCH  15  18
ENDBRANCH   8  12
BRANCH   1  24
ATOM     23  O   UNL     1       1.047   0.065  -0.060  0.00  0.00    +0.000 OA
ATOM     24  C   UNL     1       2.317   0.065  -0.060  0.00  0.00    +0.000 C 
BRANCH  24  25
ATOM     25  O   UNL     1       3.027   1.058  -0.785  0.00  0.00    +0.000 OA
ATOM     26  H   UNL     1       4.027   1.058  -0.785  0.00  0.00    +0.000 HD
ENDBRANCH  24  25
ENDBRANCH   1  24
TORSDOF 4
