REMARK  Name = 
REMARK  6 active torsions:
REMARK  status: ('A' for Active; 'I' for Inactive)
REMARK    1  A    between atoms: C_2  and  O_3
REMARK    2  A    between atoms: C_2  and  C_4
REMARK    3  A    between atoms: C_11  and  C_12
REMARK    4  A    between atoms: C_15  and  O_16
REMARK    5  A    between atoms: O_16  and  C_17
REMARK    6  A    between atoms: C_17  and  C_18
REMARK                            x       y       z     vdW  Elec       q    Type
REMARK                         _______ _______ _______ _____ _____    ______ ____
ROOT
ATOM      1  C   UNL     1       3.098  -0.060   1.389  0.00  0.00    +0.000 A 
ATOM      2  C   UNL     1       4.184   0.707   1.744  0.00  0.00    +0.000 A 
ATOM      3  N   UNL     1       4.577   0.417   3.023  0.00  0.00    +0.000 N 
ATOM      4  C   UNL     1       3.777  -0.589   3.513  0.00  0.00    +0.000 A 
ATOM      5  C   UNL     1       3.852  -1.261   4.738  0.00  0.00    +0.000 A 
ATOM      6  C   UNL     1       2.945  -2.286   4.923  0.00  0.00    +0.000 A 
ATOM      7 CL   UNL     1       2.995  -3.193   6.414  0.00  0.00    +0.000 Cl
ATOM      8  C   UNL     1       1.996  -2.657   3.955  0.00  0.00    +0.000 A 
ATOM      9  C   UNL     1       1.930  -1.977   2.750  0.00  0.00    +0.000 A 
ATOM     10  C   UNL     1       2.824  -0.917   2.514  0.00  0.00    +0.000 A 
ATOM     11  H   UNL     1       5.337   0.872   3.529  0.00  0.00    +0.000 HD
ENDROOT
BRANCH   8  12
ATOM     12  C   UNL     1       1.040  -3.806   4.231  0.00  0.00    +0.000 A 
ATOM     13  C   UNL     1       1.031  -4.914   3.400  0.00  0.00    +0.000 A 
ATOM     14  C   UNL     1      -0.090  -5.759   3.582  0.00  0.00    +0.000 A 
ATOM     15  C   UNL     1      -0.873  -5.745   4.646  0.00  0.00    +0.000 A 
ATOM     16  C   UNL     1      -0.768  -4.655   5.464  0.00  0.00    +0.000 A 
ATOM     17  C   UNL     1       0.219  -3.719   5.272  0.00  0.00    +0.000 A 
BRANCH  15  18
ATOM     18  O   UNL     1      -1.775  -6.806   4.924  0.00  0.00    +0.000 OA
BRANCH  18  19
ATOM     19  C   UNL     1      -2.600  -6.752   6.079  0.00  0.00    +0.000 C 
BRANCH  19  20
ATOM     20  C   UNL     1      -1.727  -6.677   7.321  0.00  0.00    +0.000 C 
ATOM     21  C   UNL     1      -2.102  -5.552   8.302  0.00  0.00    +0.000 C 
ATOM     22  C   UNL     1      -1.790  -6.544   9.435  0.00  0.00    +0.000 C 
ATOM     23  O   UNL     1      -2.107  -7.669   8.436  0.00  0.00    +0.000 OA
ENDBRANCH  19  20
ENDBRANCH  18  19
ENDBRANCH  15  18
ENDBRANCH   8  12
BRANCH   1  25
ATOM     24  O   UNL     1       1.067  -0.012   0.073  0.00  0.00    +0.000 OA
ATOM     25  C   UNL     1       2.338  -0.012   0.073  0.00  0.00    +0.000 C 
BRANCH  25  26
ATOM     26  O   UNL     1       3.048   0.033  -1.155  0.00  0.00    +0.000 OA
ATOM     27  H   UNL     1       4.048   0.033  -1.155  0.00  0.00    +0.000 HD
ENDBRANCH  25  26
ENDBRANCH   1  25
TORSDOF 6
