REMARK  Name = 
REMARK  8 active torsions:
REMARK  status: ('A' for Active; 'I' for Inactive)
REMARK    1  A    between atoms: C_2  and  O_3
REMARK    2  A    between atoms: C_2  and  C_4
REMARK    3  A    between atoms: C_11  and  C_12
REMARK    4  A    between atoms: C_15  and  O_16
REMARK    5  A    between atoms: O_16  and  C_17
REMARK    6  A    between atoms: C_17  and  C_18
REMARK    7  A    between atoms: C_18  and  C_19
REMARK    8  A    between atoms: C_19  and  N_20
REMARK                            x       y       z     vdW  Elec       q    Type
REMARK                         _______ _______ _______ _____ _____    ______ ____
ROOT
ATOM      1  C   UNL     1       1.034   5.708  -0.989  0.00  0.00    +0.000 A 
ATOM      2  C   UNL     1       0.869   5.992   0.357  0.00  0.00    +0.000 A 
ATOM      3  C   UNL     1      -0.285   6.758   0.644  0.00  0.00    +0.000 A 
ATOM      4  C   UNL     1      -0.960   7.460  -0.249  0.00  0.00    +0.000 A 
ATOM      5  C   UNL     1      -0.702   7.181  -1.562  0.00  0.00    +0.000 A 
ATOM      6  C   UNL     1       0.325   6.340  -1.917  0.00  0.00    +0.000 A 
ENDROOT
BRANCH   1  14
ATOM      7  C   UNL     1       3.037   0.983  -0.925  0.00  0.00    +0.000 A 
ATOM      8  C   UNL     1       4.210   0.604  -1.536  0.00  0.00    +0.000 A 
ATOM      9  N   UNL     1       4.721   1.639  -2.273  0.00  0.00    +0.000 N 
ATOM     10  C   UNL     1       3.908   2.737  -2.115  0.00  0.00    +0.000 A 
ATOM     11  C   UNL     1       4.069   4.035  -2.612  0.00  0.00    +0.000 A 
ATOM     12  C   UNL     1       3.114   4.954  -2.224  0.00  0.00    +0.000 A 
ATOM     13 CL   UNL     1       3.262   6.603  -2.777  0.00  0.00    +0.000 Cl
ATOM     14  C   UNL     1       2.037   4.635  -1.379  0.00  0.00    +0.000 A 
ATOM     15  C   UNL     1       1.889   3.342  -0.902  0.00  0.00    +0.000 A 
ATOM     16  C   UNL     1       2.827   2.364  -1.275  0.00  0.00    +0.000 A 
ATOM     17  H   UNL     1       5.566   1.601  -2.845  0.00  0.00    +0.000 HD
BRANCH   7  19
ATOM     18  O   UNL     1       1.006   0.090   0.043  0.00  0.00    +0.000 OA
ATOM     19  C   UNL     1       2.277   0.090   0.043  0.00  0.00    +0.000 C 
BRANCH  19  20
ATOM     20  O   UNL     1       2.987  -0.744   0.947  0.00  0.00    +0.000 OA
ATOM     21  H   UNL     1       3.987  -0.744   0.947  0.00  0.00    +0.000 HD
ENDBRANCH  19  20
ENDBRANCH   7  19
ENDBRANCH   1  14
BRANCH   4  22
ATOM     22  O   UNL     1      -1.902   8.450   0.135  0.00  0.00    +0.000 OA
BRANCH  22  23
ATOM     23  C   UNL     1      -2.606   9.182  -0.858  0.00  0.00    +0.000 C 
BRANCH  23  24
ATOM     24  C   UNL     1      -1.615   9.936  -1.730  0.00  0.00    +0.000 C 
BRANCH  24  25
ATOM     25  C   UNL     1      -0.676   8.947  -2.401  0.00  0.00    +0.000 C 
BRANCH  25  26
ATOM     26  N   UNL     1      -1.455   8.019  -3.233  0.00  0.00    +0.000 NA
ATOM     27  C   UNL     1      -1.192   6.555  -2.804  0.00  0.00    +0.000 C 
ATOM     28  C   UNL     1      -2.450   5.815  -3.329  0.00  0.00    +0.000 C 
ATOM     29  C   UNL     1      -3.605   6.810  -3.084  0.00  0.00    +0.000 C 
ATOM     30  F   UNL     1      -4.252   6.526  -1.958  0.00  0.00    +0.000 F 
ATOM     31  C   UNL     1      -2.971   8.211  -3.024  0.00  0.00    +0.000 C 
ENDBRANCH  25  26
ENDBRANCH  24  25
ENDBRANCH  23  24
ENDBRANCH  22  23
ENDBRANCH   4  22
TORSDOF 8
