
 OpenBabel03132512093D

 44 47  0  0  0  0  0  0  0  0999 V2000
    1.0924    0.0028    0.0382 C   0  0  0  0  0  0  0  0  0  0  0  0
    0.6191    1.3282    0.2270 O   0  0  0  0  0  0  0  0  0  0  0  0
    0.9621    2.0435    1.4047 C   0  0  0  0  0  0  0  0  0  0  0  0
   -0.0783    2.5765    2.0578 N   0  0  0  0  0  0  0  0  0  0  0  0
    0.2339    3.0842    3.2592 C   0  0  0  0  0  0  0  0  0  0  0  0
    1.4895    3.0962    3.7784 C   0  0  0  0  0  0  0  0  0  0  0  0
    1.7816    3.6845    5.1492 C   0  0  0  0  0  0  0  0  0  0  0  0
    2.7565    4.6563    5.3351 C   0  0  0  0  0  0  0  0  0  0  0  0
    3.1266    5.0838    6.6023 C   0  0  0  0  0  0  0  0  0  0  0  0
    2.4766    4.5735    7.7205 C   0  0  0  0  0  0  0  0  0  0  0  0
    1.4993    3.6295    7.5095 C   0  0  0  0  0  0  0  0  0  0  0  0
    1.1436    3.1351    6.2539 C   0  0  0  0  0  0  0  0  0  0  0  0
    0.0832    2.1463    6.4555 C   0  0  0  0  0  0  0  0  0  0  0  0
   -0.5769    1.3105    5.6349 C   0  0  0  0  0  0  0  0  0  0  0  0
   -0.2486    1.2857    4.1510 C   0  0  0  0  0  0  0  0  0  0  0  0
    0.9720    0.9875    3.5947 N   0  0  0  0  0  0  0  0  0  0  0  0
    0.9092    1.0711    2.2353 C   0  0  0  0  0  0  0  0  0  0  0  0
    2.1083    0.8293    1.3849 C   0  0  0  0  0  0  0  0  0  0  0  0
   -0.3798    1.4074    1.9034 C   0  0  0  0  0  0  0  0  0  0  0  0
   -1.1182    1.5561    3.1233 C   0  0  0  0  0  0  0  0  0  0  0  0
   -2.5821    1.8987    3.2373 C   0  0  0  0  0  0  0  0  0  0  0  0
   -0.1699    2.1422    7.9280 C   0  0  0  0  0  0  0  0  0  0  0  0
   -0.9906    1.4719    8.5569 O   0  0  0  0  0  0  0  0  0  0  0  0
    0.6980    3.0235    8.4834 N   0  0  0  0  0  0  0  0  0  0  0  0
    2.4824    2.5487    3.0003 C   0  0  0  0  0  0  0  0  0  0  0  0
    2.2438    1.9977    1.8177 N   0  0  0  0  0  0  0  0  0  0  0  0
    0.7357   -0.3733   -0.8979 H   0  0  0  0  0  0  0  0  0  0  0  0
    0.7357   -0.6198    0.8319 H   0  0  0  0  0  0  0  0  0  0  0  0
    2.1624    0.0028    0.0382 H   0  0  0  0  0  0  0  0  0  0  0  0
   -0.5553    3.5064    3.8456 H   0  0  0  0  0  0  0  0  0  0  0  0
    3.2342    5.0861    4.4796 H   0  0  0  0  0  0  0  0  0  0  0  0
    3.9096    5.8037    6.7186 H   0  0  0  0  0  0  0  0  0  0  0  0
    2.7272    4.9027    8.7073 H   0  0  0  0  0  0  0  0  0  0  0  0
   -1.3333    0.6629    6.0264 H   0  0  0  0  0  0  0  0  0  0  0  0
    1.8075    0.7386    4.1243 H   0  0  0  0  0  0  0  0  0  0  0  0
    1.9134    0.0169    0.7163 H   0  0  0  0  0  0  0  0  0  0  0  0
    2.3287    1.7110    0.8201 H   0  0  0  0  0  0  0  0  0  0  0  0
    2.9439    0.5863    2.0074 H   0  0  0  0  0  0  0  0  0  0  0  0
   -0.7640    1.5355    0.9130 H   0  0  0  0  0  0  0  0  0  0  0  0
   -2.7629    2.8485    2.7791 H   0  0  0  0  0  0  0  0  0  0  0  0
   -3.1635    1.1481    2.7439 H   0  0  0  0  0  0  0  0  0  0  0  0
   -2.8588    1.9425    4.2700 H   0  0  0  0  0  0  0  0  0  0  0  0
    0.7589    3.2195    9.4825 H   0  0  0  0  0  0  0  0  0  0  0  0
    3.4886    2.5681    3.3638 H   0  0  0  0  0  0  0  0  0  0  0  0
  1  2  1  0  0  0  0
  1 27  1  0  0  0  0
  1 28  1  0  0  0  0
  1 29  1  0  0  0  0
  2  3  1  0  0  0  0
  3  4  1  0  0  0  0
  3 26  2  0  0  0  0
  4  5  2  0  0  0  0
  5  6  1  0  0  0  0
  5 30  1  0  0  0  0
  6  7  1  0  0  0  0
  6 25  2  0  0  0  0
  7  8  1  0  0  0  0
  7 12  2  0  0  0  0
  8  9  2  0  0  0  0
  8 31  1  0  0  0  0
  9 10  1  0  0  0  0
  9 32  1  0  0  0  0
 10 11  2  0  0  0  0
 10 33  1  0  0  0  0
 11 12  1  0  0  0  0
 11 24  1  0  0  0  0
 12 13  1  0  0  0  0
 13 14  2  0  0  0  0
 13 22  1  0  0  0  0
 14 15  1  0  0  0  0
 14 34  1  0  0  0  0
 15 16  1  0  0  0  0
 15 20  2  0  0  0  0
 16 17  1  0  0  0  0
 16 35  1  0  0  0  0
 17 18  1  0  0  0  0
 17 19  2  0  0  0  0
 18 36  1  0  0  0  0
 18 37  1  0  0  0  0
 18 38  1  0  0  0  0
 19 20  1  0  0  0  0
 19 39  1  0  0  0  0
 20 21  1  0  0  0  0
 21 40  1  0  0  0  0
 21 41  1  0  0  0  0
 21 42  1  0  0  0  0
 22 23  2  0  0  0  0
 22 24  1  0  0  0  0
 24 43  1  0  0  0  0
 25 26  1  0  0  0  0
 25 44  1  0  0  0  0
M  END
