REMARK  Name = 
REMARK  9 active torsions:
REMARK  status: ('A' for Active; 'I' for Inactive)
REMARK    1  A    between atoms: C_1  and  N_2
REMARK    2  A    between atoms: S_3  and  N_5
REMARK    3  A    between atoms: S_3  and  C_7
REMARK    4  A    between atoms: N_5  and  C_6
REMARK    5  A    between atoms: C_10  and  C_11
REMARK    6  A    between atoms: C_14  and  C_15
REMARK    7  A    between atoms: C_19  and  O_20
REMARK    8  A    between atoms: O_20  and  C_21
REMARK    9  A    between atoms: C_25  and  O_26
REMARK                            x       y       z     vdW  Elec       q    Type
REMARK                         _______ _______ _______ _____ _____    ______ ____
ROOT
ATOM      1  C   UNL     1      -2.615  -9.830  -6.796  0.00  0.00    +0.000 A 
ATOM      2  N   UNL     1      -1.747 -10.358  -7.731  0.00  0.00    +0.000 NA
ATOM      3  C   UNL     1      -2.092 -11.530  -8.411  0.00  0.00    +0.000 A 
ATOM      4  N   UNL     1      -1.431 -12.339  -9.433  0.00  0.00    +0.000 NA
ATOM      5  C   UNL     1      -2.210 -13.341  -9.715  0.00  0.00    +0.000 A 
ATOM      6  N   UNL     1      -3.376 -13.277  -8.947  0.00  0.00    +0.000 N 
ATOM      7  C   UNL     1      -3.317 -12.162  -8.136  0.00  0.00    +0.000 A 
ATOM      8  C   UNL     1      -4.178 -11.617  -7.190  0.00  0.00    +0.000 A 
ATOM      9  C   UNL     1      -3.827 -10.465  -6.523  0.00  0.00    +0.000 A 
ATOM     10 CL   UNL     1      -4.928  -9.781  -5.303  0.00  0.00    +0.000 Cl
ATOM     11  H   UNL     1      -4.146 -13.946  -8.980  0.00  0.00    +0.000 HD
ENDROOT
BRANCH   1  15
ATOM     12  C   UNL     1      -1.340  -6.104  -5.142  0.00  0.00    +0.000 A 
ATOM     13  C   UNL     1      -1.345  -6.254  -6.519  0.00  0.00    +0.000 A 
ATOM     14  C   UNL     1      -1.987  -7.433  -6.965  0.00  0.00    +0.000 A 
ATOM     15  C   UNL     1      -2.243  -8.481  -6.203  0.00  0.00    +0.000 A 
ATOM     16  C   UNL     1      -2.155  -8.287  -4.853  0.00  0.00    +0.000 A 
ATOM     17  C   UNL     1      -1.661  -7.112  -4.338  0.00  0.00    +0.000 A 
BRANCH  12  21
ATOM     18  C   UNL     1       0.123  -2.529  -3.321  0.00  0.00    +0.000 A 
ATOM     19  C   UNL     1      -0.959  -2.442  -4.182  0.00  0.00    +0.000 A 
ATOM     20  C   UNL     1      -1.498  -3.696  -4.553  0.00  0.00    +0.000 A 
ATOM     21  C   UNL     1      -0.867  -4.850  -4.426  0.00  0.00    +0.000 A 
ATOM     22  C   UNL     1       0.234  -4.854  -3.616  0.00  0.00    +0.000 A 
ATOM     23  C   UNL     1       0.743  -3.683  -3.108  0.00  0.00    +0.000 A 
BRANCH  18  26
ATOM     24  C   UNL     1       0.981  -0.043  -0.089  0.00  0.00    +0.000 C 
ATOM     25  N   UNL     1       0.491  -1.108  -0.975  0.00  0.00    +0.000 NA
ATOM     26  S   UNL     1       0.872  -1.098  -2.503  0.00  0.00    +0.000 S 
ATOM     27  O   UNL     1       0.353   0.188  -3.150  0.00  0.00    +0.000 OA
BRANCH  26  28
ATOM     28  N   UNL     1       2.622  -1.175  -2.673  0.00  0.00    +0.000 NA
ATOM     29  C   UNL     1       2.977  -1.166  -4.099  0.00  0.00    +0.000 C 
ATOM     30  H   UNL     1       3.044  -0.369  -2.212  0.00  0.00    +0.000 HD
ENDBRANCH  26  28
ENDBRANCH  18  26
ENDBRANCH  12  21
ENDBRANCH   1  15
BRANCH   5  31
ATOM     31  O   UNL     1      -1.918 -14.355 -10.666  0.00  0.00    +0.000 OA
BRANCH  31  32
ATOM     32  C   UNL     1      -0.698 -14.318 -11.391  0.00  0.00    +0.000 C 
ATOM     33  C   UNL     1       0.340 -14.371 -10.540  0.00  0.00    +0.000 C 
ATOM     34  O   UNL     1       0.695 -13.025 -10.118  0.00  0.00    +0.000 OA
ATOM     35  C   UNL     1       0.178 -12.072 -11.213  0.00  0.00    +0.000 C 
ATOM     36  C   UNL     1       1.348 -11.577 -12.037  0.00  0.00    +0.000 C 
ATOM     37  C   UNL     1       1.608 -12.531 -12.972  0.00  0.00    +0.000 C 
ATOM     38  O   UNL     1       0.376 -13.209 -13.346  0.00  0.00    +0.000 OA
ATOM     39  C   UNL     1      -0.600 -13.021 -12.168  0.00  0.00    +0.000 C 
BRANCH  36  40
ATOM     40  O   UNL     1       2.485 -11.349 -11.217  0.00  0.00    +0.000 OA
ATOM     41  H   UNL     1       2.741 -12.199 -10.758  0.00  0.00    +0.000 HD
ENDBRANCH  36  40
ENDBRANCH  31  32
ENDBRANCH   5  31
TORSDOF 7
