
 OpenBabel03132514253D

 53 57  0  0  0  0  0  0  0  0999 V2000
    0.9952   -0.0401   -0.0915 C   0  0  0  0  0  0  0  0  0  0  0  0
    0.4886    0.7273    1.1188 C   0  0  0  0  0  0  0  0  0  0  0  0
    0.9786    2.1120    1.0614 N   0  0  0  0  0  0  0  0  0  0  0  0
    0.0233    3.2284    1.0151 C   0  0  0  0  0  0  0  0  0  0  0  0
    0.4469    4.4255    0.9654 O   0  0  0  0  0  0  0  0  0  0  0  0
   -1.4711    2.9508    1.0266 C   0  0  0  0  0  0  0  0  0  0  0  0
   -2.4200    3.5309    0.2262 C   0  0  0  0  0  0  0  0  0  0  0  0
   -3.6463    3.0388    0.5509 N   0  0  0  0  0  0  0  0  0  0  0  0
   -3.5492    2.1042    1.5600 C   0  0  0  0  0  0  0  0  0  0  0  0
   -4.4356    1.3490    2.2065 N   0  0  0  0  0  0  0  0  0  0  0  0
   -4.0454    0.5069    3.1524 C   0  0  0  0  0  0  0  0  0  0  0  0
   -2.6887    0.4075    3.5068 C   0  0  0  0  0  0  0  0  0  0  0  0
   -2.2420   -0.5394    4.6088 C   0  0  0  0  0  0  0  0  0  0  0  0
   -1.7972   -0.2370    5.8114 C   0  0  0  0  0  0  0  0  0  0  0  0
   -1.6956   -1.3280    6.5564 N   0  0  0  0  0  0  0  0  0  0  0  0
   -1.2321   -1.3738    7.9507 C   0  0  0  0  0  0  0  0  0  0  0  0
   -2.0832   -2.3765    5.8317 C   0  0  0  0  0  0  0  0  0  0  0  0
   -2.1948   -3.7632    6.0648 C   0  0  0  0  0  0  0  0  0  0  0  0
   -2.6391   -4.5677    5.0749 C   0  0  0  0  0  0  0  0  0  0  0  0
   -2.7872   -6.3157    5.3765 Cl  0  0  0  0  0  0  0  0  0  0  0  0
   -2.9758   -4.0743    3.8541 C   0  0  0  0  0  0  0  0  0  0  0  0
   -2.8941   -2.7543    3.5748 C   0  0  0  0  0  0  0  0  0  0  0  0
   -2.4433   -1.8659    4.5531 C   0  0  0  0  0  0  0  0  0  0  0  0
   -1.8026    1.1605    2.8567 N   0  0  0  0  0  0  0  0  0  0  0  0
   -2.1875    2.0036    1.9018 C   0  0  0  0  0  0  0  0  0  0  0  0
   -1.0314    0.7273    1.1188 C   0  0  0  0  0  0  0  0  0  0  0  0
   -1.6669    0.2169    2.0940 O   0  0  0  0  0  0  0  0  0  0  0  0
   -1.7664    1.3175   -0.0091 N   0  0  0  0  0  0  0  0  0  0  0  0
   -3.0583    2.1299   -0.2040 C   0  0  0  0  0  0  0  0  0  0  0  0
   -3.1878    1.4469   -1.5750 C   0  0  0  0  0  0  0  0  0  0  0  0
   -3.8930    2.1174   -2.7427 C   0  0  0  0  0  0  0  0  0  0  0  0
   -4.4780    2.6736   -3.7114 N   0  0  0  0  0  0  0  0  0  0  0  0
   -1.6613    1.2645   -1.5444 C   0  0  0  0  0  0  0  0  0  0  0  0
    0.6386    0.4277   -0.9853 H   0  0  0  0  0  0  0  0  0  0  0  0
    0.6386   -1.0480   -0.0497 H   0  0  0  0  0  0  0  0  0  0  0  0
    2.0652   -0.0401   -0.0915 H   0  0  0  0  0  0  0  0  0  0  0  0
    0.8452    0.2595    2.0126 H   0  0  0  0  0  0  0  0  0  0  0  0
    1.9814    2.2982    1.0537 H   0  0  0  0  0  0  0  0  0  0  0  0
   -2.2269    4.2574   -0.5352 H   0  0  0  0  0  0  0  0  0  0  0  0
   -4.5199    3.3230    0.1076 H   0  0  0  0  0  0  0  0  0  0  0  0
   -4.7696   -0.1029    3.6509 H   0  0  0  0  0  0  0  0  0  0  0  0
   -1.5523    0.7512    6.1405 H   0  0  0  0  0  0  0  0  0  0  0  0
   -2.0072   -1.7725    8.5712 H   0  0  0  0  0  0  0  0  0  0  0  0
   -0.3651   -1.9973    8.0180 H   0  0  0  0  0  0  0  0  0  0  0  0
   -0.9866   -0.3850    8.2776 H   0  0  0  0  0  0  0  0  0  0  0  0
   -1.9301   -4.1739    7.0167 H   0  0  0  0  0  0  0  0  0  0  0  0
   -3.3141   -4.7480    3.0947 H   0  0  0  0  0  0  0  0  0  0  0  0
   -3.1739   -2.3917    2.6078 H   0  0  0  0  0  0  0  0  0  0  0  0
   -3.8514    2.1134    0.5140 H   0  0  0  0  0  0  0  0  0  0  0  0
   -2.9190    3.1901   -0.2433 H   0  0  0  0  0  0  0  0  0  0  0  0
   -3.7474    0.5350   -1.5694 H   0  0  0  0  0  0  0  0  0  0  0  0
   -1.0026    1.9074   -2.0900 H   0  0  0  0  0  0  0  0  0  0  0  0
   -1.3135    0.3322   -1.9377 H   0  0  0  0  0  0  0  0  0  0  0  0
  1  2  1  0  0  0  0
  1 34  1  0  0  0  0
  1 35  1  0  0  0  0
  1 36  1  0  0  0  0
  2  3  1  0  0  0  0
  2 26  1  0  0  0  0
  2 37  1  0  0  0  0
  3  4  1  0  0  0  0
  3 38  1  0  0  0  0
  4  5  2  0  0  0  0
  4  6  1  0  0  0  0
  6  7  2  0  0  0  0
  6 25  1  0  0  0  0
  7  8  1  0  0  0  0
  7 39  1  0  0  0  0
  8  9  1  0  0  0  0
  8 40  1  0  0  0  0
  9 10  1  0  0  0  0
  9 25  2  0  0  0  0
 10 11  2  0  0  0  0
 11 12  1  0  0  0  0
 11 41  1  0  0  0  0
 12 13  1  0  0  0  0
 12 24  2  0  0  0  0
 13 14  2  0  0  0  0
 13 23  1  0  0  0  0
 14 15  1  0  0  0  0
 14 42  1  0  0  0  0
 15 16  1  0  0  0  0
 15 17  1  0  0  0  0
 16 43  1  0  0  0  0
 16 44  1  0  0  0  0
 16 45  1  0  0  0  0
 17 18  1  0  0  0  0
 17 23  2  0  0  0  0
 18 19  2  0  0  0  0
 18 46  1  0  0  0  0
 19 20  1  0  0  0  0
 19 21  1  0  0  0  0
 21 22  2  0  0  0  0
 21 47  1  0  0  0  0
 22 23  1  0  0  0  0
 22 48  1  0  0  0  0
 24 25  1  0  0  0  0
 26 27  2  0  0  0  0
 26 28  1  0  0  0  0
 28 29  1  0  0  0  0
 28 33  1  0  0  0  0
 29 30  1  0  0  0  0
 29 49  1  0  0  0  0
 29 50  1  0  0  0  0
 30 31  1  0  0  0  0
 30 33  1  0  0  0  0
 30 51  1  0  0  0  0
 31 32  3  0  0  0  0
 33 52  1  0  0  0  0
 33 53  1  0  0  0  0
M  END
