REMARK  Name = 
REMARK  6 active torsions:
REMARK  status: ('A' for Active; 'I' for Inactive)
REMARK    1  A    between atoms: C_2  and  O_3
REMARK    2  A    between atoms: C_2  and  C_4
REMARK    3  A    between atoms: C_11  and  C_12
REMARK    4  A    between atoms: C_15  and  C_16
REMARK    5  A    between atoms: C_16  and  C_17
REMARK    6  A    between atoms: C_17  and  O_19
REMARK                            x       y       z     vdW  Elec       q    Type
REMARK                         _______ _______ _______ _____ _____    ______ ____
ROOT
ATOM      1  C   UNL     1       3.032   1.128  -0.703  0.00  0.00    +0.000 A 
ATOM      2  C   UNL     1       4.192   0.861  -1.392  0.00  0.00    +0.000 A 
ATOM      3  N   UNL     1       4.703   2.010  -1.934  0.00  0.00    +0.000 N 
ATOM      4  C   UNL     1       3.903   3.066  -1.563  0.00  0.00    +0.000 A 
ATOM      5  C   UNL     1       4.071   4.432  -1.813  0.00  0.00    +0.000 A 
ATOM      6  C   UNL     1       3.131   5.271  -1.247  0.00  0.00    +0.000 A 
ATOM      7 CL   UNL     1       3.288   6.992  -1.488  0.00  0.00    +0.000 Cl
ATOM      8  C   UNL     1       2.063   4.809  -0.458  0.00  0.00    +0.000 A 
ATOM      9  C   UNL     1       1.909   3.451  -0.226  0.00  0.00    +0.000 A 
ATOM     10  C   UNL     1       2.832   2.552  -0.788  0.00  0.00    +0.000 A 
ATOM     11  H   UNL     1       5.539   2.072  -2.516  0.00  0.00    +0.000 HD
ENDROOT
BRANCH   8  12
ATOM     12  C   UNL     1       1.077   5.799   0.140  0.00  0.00    +0.000 A 
ATOM     13  C   UNL     1       0.924   5.790   1.517  0.00  0.00    +0.000 A 
ATOM     14  C   UNL     1      -0.234   6.466   1.969  0.00  0.00    +0.000 A 
ATOM     15  C   UNL     1      -0.924   7.333   1.250  0.00  0.00    +0.000 A 
ATOM     16  C   UNL     1      -0.677   7.340  -0.095  0.00  0.00    +0.000 A 
ATOM     17  C   UNL     1       0.353   6.604  -0.628  0.00  0.00    +0.000 A 
BRANCH  15  18
ATOM     18  C   UNL     1      -1.938   8.272   1.883  0.00  0.00    +0.000 C 
ATOM     19  C   UNL     1      -2.615   9.388   1.086  0.00  0.00    +0.000 C 
ATOM     20  C   UNL     1      -3.345   8.063   1.319  0.00  0.00    +0.000 C 
BRANCH  18  21
ATOM     21  C   UNL     1      -1.224   8.297   3.225  0.00  0.00    +0.000 C 
ATOM     22  O   UNL     1      -0.156   7.627   3.389  0.00  0.00    +0.000 OA
BRANCH  21  23
ATOM     23  O   UNL     1      -1.749   9.069   4.295  0.00  0.00    +0.000 OA
ATOM     24  H   UNL     1      -1.280   9.085   5.177  0.00  0.00    +0.000 HD
ENDBRANCH  21  23
ENDBRANCH  18  21
ENDBRANCH  15  18
ENDBRANCH   8  12
BRANCH   1  26
ATOM     25  O   UNL     1       1.001   0.066   0.075  0.00  0.00    +0.000 OA
ATOM     26  C   UNL     1       2.272   0.066   0.075  0.00  0.00    +0.000 C 
BRANCH  26  27
ATOM     27  O   UNL     1       2.982  -0.926   0.802  0.00  0.00    +0.000 OA
ATOM     28  H   UNL     1       3.982  -0.926   0.802  0.00  0.00    +0.000 HD
ENDBRANCH  26  27
ENDBRANCH   1  26
TORSDOF 6
