REMARK  Name = 
REMARK  3 active torsions:
REMARK  status: ('A' for Active; 'I' for Inactive)
REMARK    1  A    between atoms: C_2  and  C_19
REMARK    2  A    between atoms: N_3  and  C_4
REMARK    3  A    between atoms: C_10  and  C_11
REMARK                            x       y       z     vdW  Elec       q    Type
REMARK                         _______ _______ _______ _____ _____    ______ ____
ROOT
ATOM      1  C   UNL     1       4.527   0.516   1.214  0.00  0.00    +0.000 A 
ATOM      2  N   UNL     1       5.209   1.015   0.152  0.00  0.00    +0.000 NA
ATOM      3  C   UNL     1       6.550   1.044   0.162  0.00  0.00    +0.000 A 
ATOM      4  N   UNL     1       7.251   0.503   1.163  0.00  0.00    +0.000 NA
ATOM      5  C   UNL     1       6.620   0.013   2.256  0.00  0.00    +0.000 A 
ATOM      6  O   UNL     1       7.130  -0.524   3.441  0.00  0.00    +0.000 OA
ATOM      7  C   UNL     1       6.078  -0.920   4.237  0.00  0.00    +0.000 A 
ATOM      8  C   UNL     1       4.887  -0.600   3.538  0.00  0.00    +0.000 A 
ATOM      9  C   UNL     1       5.238  -0.004   2.323  0.00  0.00    +0.000 A 
ENDROOT
BRANCH   7  10
ATOM     10  C   UNL     1       6.176  -1.575   5.604  0.00  0.00    +0.000 A 
ATOM     11  C   UNL     1       6.811  -0.911   6.657  0.00  0.00    +0.000 A 
ATOM     12  C   UNL     1       6.789  -1.516   7.907  0.00  0.00    +0.000 A 
ATOM     13  C   UNL     1       6.145  -2.723   8.056  0.00  0.00    +0.000 A 
ATOM     14  N   UNL     1       5.554  -3.373   7.049  0.00  0.00    +0.000 NA
ATOM     15  C   UNL     1       5.574  -2.796   5.837  0.00  0.00    +0.000 A 
ENDBRANCH   7  10
BRANCH   1  18
ATOM     16  O   UNL     1       1.051   0.084   0.017  0.00  0.00    +0.000 OA
ATOM     17  C   UNL     1       2.322   0.084   0.017  0.00  0.00    +0.000 C 
ATOM     18  N   UNL     1       3.057   0.516   1.214  0.00  0.00    +0.000 N 
ATOM     19  H   UNL     1       2.547   0.816   2.046  0.00  0.00    +0.000 HD
BRANCH  17  20
ATOM     20  C   UNL     1       3.082  -0.362  -1.221  0.00  0.00    +0.000 C 
ATOM     21  C   UNL     1       2.578  -1.761  -1.686  0.00  0.00    +0.000 C 
ATOM     22  C   UNL     1       3.010  -1.845  -3.157  0.00  0.00    +0.000 C 
ATOM     23  C   UNL     1       2.959  -0.349  -3.686  0.00  0.00    +0.000 C 
ATOM     24  C   UNL     1       2.692   0.508  -2.434  0.00  0.00    +0.000 C 
ENDBRANCH  17  20
ENDBRANCH   1  18
TORSDOF 3
