
 OpenBabel03132512083D

 59 64  0  0  0  0  0  0  0  0999 V2000
    1.0777    0.0003   -0.0629 C   0  0  0  0  0  0  0  0  0  0  0  0
    0.3975    0.6088   -1.0717 C   0  0  0  0  0  0  0  0  0  0  0  0
   -1.1225    0.6088   -1.0717 C   0  0  0  0  0  0  0  0  0  0  0  0
   -1.5958    1.9474   -1.0460 O   0  0  0  0  0  0  0  0  0  0  0  0
   -1.1225    2.5944    0.1261 C   0  0  0  0  0  0  0  0  0  0  0  0
   -2.1871    2.9849    0.8452 C   0  0  0  0  0  0  0  0  0  0  0  0
   -2.6077    4.3100    0.4166 O   0  0  0  0  0  0  0  0  0  0  0  0
   -1.3763    4.9717   -0.2309 C   0  0  0  0  0  0  0  0  0  0  0  0
   -0.8133    6.0111    0.7158 C   0  0  0  0  0  0  0  0  0  0  0  0
   -1.8556    6.6975    1.3932 O   0  0  0  0  0  0  0  0  0  0  0  0
   -2.7733    5.9753    2.2011 C   0  0  0  0  0  0  0  0  0  0  0  0
   -2.4994    5.2473    3.2439 N   0  0  0  0  0  0  0  0  0  0  0  0
   -3.7408    4.6172    3.6905 C   0  0  0  0  0  0  0  0  0  0  0  0
   -4.0627    3.7468    4.7362 N   0  0  0  0  0  0  0  0  0  0  0  0
   -5.3672    3.3225    4.8941 C   0  0  0  0  0  0  0  0  0  0  0  0
   -5.7241    2.3823    6.0338 C   0  0  0  0  0  0  0  0  0  0  0  0
   -5.6577    2.8702    7.3235 C   0  0  0  0  0  0  0  0  0  0  0  0
   -6.1080    2.1542    8.3418 C   0  0  0  0  0  0  0  0  0  0  0  0
   -6.6402    0.9564    8.1651 C   0  0  0  0  0  0  0  0  0  0  0  0
   -7.1495    0.1762    9.3661 C   0  0  0  0  0  0  0  0  0  0  0  0
   -8.2621    0.6619   10.0235 C   0  0  0  0  0  0  0  0  0  0  0  0
   -8.8463   -0.0453   10.9779 C   0  0  0  0  0  0  0  0  0  0  0  0
   -8.3952   -1.2369   11.3323 C   0  0  0  0  0  0  0  0  0  0  0  0
   -7.2862   -1.7846   10.7169 C   0  0  0  0  0  0  0  0  0  0  0  0
   -6.6456   -1.0680    9.7166 C   0  0  0  0  0  0  0  0  0  0  0  0
   -6.7386    0.4060    6.9018 C   0  0  0  0  0  0  0  0  0  0  0  0
   -6.2709    1.1265    5.8125 C   0  0  0  0  0  0  0  0  0  0  0  0
   -6.3590    3.7528    4.0124 C   0  0  0  0  0  0  0  0  0  0  0  0
   -8.0328    3.1842    4.2207 Cl  0  0  0  0  0  0  0  0  0  0  0  0
   -6.0533    4.6138    2.9824 C   0  0  0  0  0  0  0  0  0  0  0  0
   -4.7456    5.0523    2.8086 C   0  0  0  0  0  0  0  0  0  0  0  0
   -4.1350    5.8881    1.8960 N   0  0  0  0  0  0  0  0  0  0  0  0
   -0.0114    5.3530    1.5976 C   0  0  0  0  0  0  0  0  0  0  0  0
    0.5946    4.1988    0.9513 O   0  0  0  0  0  0  0  0  0  0  0  0
   -0.3211    3.8299   -0.2312 C   0  0  0  0  0  0  0  0  0  0  0  0
    0.5427   -0.4784    0.7305 H   0  0  0  0  0  0  0  0  0  0  0  0
    2.1477    0.0003   -0.0629 H   0  0  0  0  0  0  0  0  0  0  0  0
    0.9325    1.0875   -1.8652 H   0  0  0  0  0  0  0  0  0  0  0  0
   -1.4791    0.1213   -1.9549 H   0  0  0  0  0  0  0  0  0  0  0  0
   -1.4791    0.0877   -0.2079 H   0  0  0  0  0  0  0  0  0  0  0  0
   -0.5006    1.9171    0.6733 H   0  0  0  0  0  0  0  0  0  0  0  0
   -2.9892    2.2926    0.6960 H   0  0  0  0  0  0  0  0  0  0  0  0
   -1.9253    3.0127    1.8822 H   0  0  0  0  0  0  0  0  0  0  0  0
   -1.6047    5.4061   -1.1817 H   0  0  0  0  0  0  0  0  0  0  0  0
   -0.2440    6.7348    0.1708 H   0  0  0  0  0  0  0  0  0  0  0  0
   -5.2375    3.8379    7.5020 H   0  0  0  0  0  0  0  0  0  0  0  0
   -6.0398    2.5542    9.3319 H   0  0  0  0  0  0  0  0  0  0  0  0
   -8.6566    1.6206    9.7586 H   0  0  0  0  0  0  0  0  0  0  0  0
   -9.7043    0.3570   11.4747 H   0  0  0  0  0  0  0  0  0  0  0  0
   -8.8951   -1.7833   12.1046 H   0  0  0  0  0  0  0  0  0  0  0  0
   -6.9259   -2.7491   11.0082 H   0  0  0  0  0  0  0  0  0  0  0  0
   -5.7819   -1.4661    9.2262 H   0  0  0  0  0  0  0  0  0  0  0  0
   -7.1700   -0.5636    6.7653 H   0  0  0  0  0  0  0  0  0  0  0  0
   -6.3305    0.7226    4.8234 H   0  0  0  0  0  0  0  0  0  0  0  0
   -6.8221    4.9453    2.3160 H   0  0  0  0  0  0  0  0  0  0  0  0
   -4.6013    6.3649    1.1242 H   0  0  0  0  0  0  0  0  0  0  0  0
   -0.5989    5.0226    2.4286 H   0  0  0  0  0  0  0  0  0  0  0  0
    0.7585    6.0135    1.9380 H   0  0  0  0  0  0  0  0  0  0  0  0
    0.2317    3.6869   -1.1361 H   0  0  0  0  0  0  0  0  0  0  0  0
  1  2  2  0  0  0  0
  1 36  1  0  0  0  0
  1 37  1  0  0  0  0
  2  3  1  0  0  0  0
  2 38  1  0  0  0  0
  3  4  1  0  0  0  0
  3 39  1  0  0  0  0
  3 40  1  0  0  0  0
  4  5  1  0  0  0  0
  5  6  1  0  0  0  0
  5 35  1  0  0  0  0
  5 41  1  0  0  0  0
  6  7  1  0  0  0  0
  6 42  1  0  0  0  0
  6 43  1  0  0  0  0
  7  8  1  0  0  0  0
  8  9  1  0  0  0  0
  8 35  1  0  0  0  0
  8 44  1  0  0  0  0
  9 10  1  0  0  0  0
  9 33  1  0  0  0  0
  9 45  1  0  0  0  0
 10 11  1  0  0  0  0
 11 12  2  0  0  0  0
 11 32  1  0  0  0  0
 12 13  1  0  0  0  0
 13 14  1  0  0  0  0
 13 31  2  0  0  0  0
 14 15  2  0  0  0  0
 15 16  1  0  0  0  0
 15 28  1  0  0  0  0
 16 17  1  0  0  0  0
 16 27  2  0  0  0  0
 17 18  2  0  0  0  0
 17 46  1  0  0  0  0
 18 19  1  0  0  0  0
 18 47  1  0  0  0  0
 19 20  1  0  0  0  0
 19 26  2  0  0  0  0
 20 21  1  0  0  0  0
 20 25  2  0  0  0  0
 21 22  2  0  0  0  0
 21 48  1  0  0  0  0
 22 23  1  0  0  0  0
 22 49  1  0  0  0  0
 23 24  2  0  0  0  0
 23 50  1  0  0  0  0
 24 25  1  0  0  0  0
 24 51  1  0  0  0  0
 25 52  1  0  0  0  0
 26 27  1  0  0  0  0
 26 53  1  0  0  0  0
 27 54  1  0  0  0  0
 28 29  1  0  0  0  0
 28 30  2  0  0  0  0
 30 31  1  0  0  0  0
 30 55  1  0  0  0  0
 31 32  1  0  0  0  0
 32 56  1  0  0  0  0
 33 34  1  0  0  0  0
 33 57  1  0  0  0  0
 33 58  1  0  0  0  0
 34 35  1  0  0  0  0
 35 59  1  0  0  0  0
M  END
