REMARK  Name = 
REMARK  5 active torsions:
REMARK  status: ('A' for Active; 'I' for Inactive)
REMARK    1  A    between atoms: C_1  and  C_2
REMARK    2  A    between atoms: C_2  and  C_3
REMARK    3  A    between atoms: C_11  and  N_12
REMARK    4  A    between atoms: N_16  and  C_17
REMARK    5  A    between atoms: C_17  and  C_18
REMARK                            x       y       z     vdW  Elec       q    Type
REMARK                         _______ _______ _______ _____ _____    ______ ____
ROOT
ATOM      1  N   UNL     1       4.691  -1.568   5.387  0.00  0.00    +0.000 N 
ATOM      2  C   UNL     1       5.398  -0.392   5.912  0.00  0.00    +0.000 A 
ATOM      3  N   UNL     1       6.762  -0.334   5.708  0.00  0.00    +0.000 NA
ATOM      4  C   UNL     1       7.461   0.721   6.095  0.00  0.00    +0.000 A 
ATOM      5  N   UNL     1       8.913   0.743   5.867  0.00  0.00    +0.000 N 
ATOM      6  C   UNL     1       6.884   1.756   6.683  0.00  0.00    +0.000 A 
ATOM      7  O   UNL     1       7.632   2.811   7.054  0.00  0.00    +0.000 OA
ATOM      8  C   UNL     1       7.053   3.869   7.653  0.00  0.00    +0.000 A 
ATOM      9  C   UNL     1       4.903   2.898   7.559  0.00  0.00    +0.000 A 
ATOM     10  C   UNL     1       5.523   1.767   6.919  0.00  0.00    +0.000 A 
ATOM     11  N   UNL     1       4.761   0.674   6.531  0.00  0.00    +0.000 NA
ATOM     12  H   UNL     1       4.906  -2.497   5.750  0.00  0.00    +0.000 HD
ATOM     13  H   UNL     1       9.463   1.551   6.161  0.00  0.00    +0.000 HD
ENDROOT
BRANCH   1  24
ATOM     14  C   UNL     1       1.050  -0.044  -0.074  0.00  0.00    +0.000 C 
ATOM     15  C   UNL     1       0.544  -0.866   1.100  0.00  0.00    +0.000 C 
ATOM     16  C   UNL     1       0.110  -2.187   0.484  0.00  0.00    +0.000 C 
ATOM     17  O   UNL     1      -0.763   0.051   1.977  0.00  0.00    +0.000 OA
ATOM     18  C   UNL     1      -0.389   1.517   2.064  0.00  0.00    +0.000 C 
ATOM     19  C   UNL     1       0.773   1.857   2.969  0.00  0.00    +0.000 C 
ATOM     20  O   UNL     1       0.658   2.447   4.089  0.00  0.00    +0.000 OA
ATOM     21  N   UNL     1       2.105   1.404   2.368  0.00  0.00    +0.000 N 
ATOM     22  C   UNL     1       2.418   0.008   2.867  0.00  0.00    +0.000 A 
ATOM     23  C   UNL     1       3.386  -0.150   3.849  0.00  0.00    +0.000 A 
ATOM     24  C   UNL     1       3.674  -1.407   4.338  0.00  0.00    +0.000 A 
ATOM     25  C   UNL     1       3.003  -2.529   3.840  0.00  0.00    +0.000 A 
ATOM     26  C   UNL     1       2.032  -2.368   2.848  0.00  0.00    +0.000 A 
ATOM     27  C   UNL     1       1.758  -1.096   2.374  0.00  0.00    +0.000 A 
ATOM     28  H   UNL     1       2.687   1.952   1.735  0.00  0.00    +0.000 HD
ENDBRANCH   1  24
BRANCH   5  29
ATOM     29  C   UNL     1       9.572  -0.398   5.216  0.00  0.00    +0.000 C 
BRANCH  29  30
ATOM     30  C   UNL     1      10.249   0.070   3.938  0.00  0.00    +0.000 C 
ATOM     31  F   UNL     1      11.155   0.998   4.230  0.00  0.00    +0.000 F 
ATOM     32  F   UNL     1      10.845  -0.963   3.349  0.00  0.00    +0.000 F 
ATOM     33  F   UNL     1       9.338   0.584   3.116  0.00  0.00    +0.000 F 
ENDBRANCH  29  30
ENDBRANCH   5  29
TORSDOF 3
