
 OpenBabel03132514253D

 70 75  0  0  0  0  0  0  0  0999 V2000
    1.0364   -0.0555   -0.0748 C   0  0  0  0  0  0  0  0  0  0  0  0
    0.5464    0.2007    1.2872 N   0  0  0  0  0  0  0  0  0  0  0  0
   -0.9236    0.2007    1.2872 C   0  0  0  0  0  0  0  0  0  0  0  0
    1.1331   -1.0582    2.3682 S   0  0  0  0  0  0  0  0  0  0  0  0
    0.5298   -2.6683    1.8029 C   0  0  0  0  0  0  0  0  0  0  0  0
    2.6635   -1.0582    2.3682 O   0  0  0  0  0  0  0  0  0  0  0  0
    0.6080   -0.7836    3.8278 N   0  0  0  0  0  0  0  0  0  0  0  0
    0.9631   -1.6998    4.9211 C   0  0  0  0  0  0  0  0  0  0  0  0
    0.4480   -3.0937    4.6016 C   0  0  0  0  0  0  0  0  0  0  0  0
   -0.8483   -3.2951    4.1570 C   0  0  0  0  0  0  0  0  0  0  0  0
   -1.2550   -4.6503    4.1707 C   0  0  0  0  0  0  0  0  0  0  0  0
   -0.4299   -5.6792    4.2368 C   0  0  0  0  0  0  0  0  0  0  0  0
   -0.8839   -7.0923    3.9086 C   0  0  0  0  0  0  0  0  0  0  0  0
   -1.3686   -7.4224    2.6538 C   0  0  0  0  0  0  0  0  0  0  0  0
   -1.9953   -8.6897    2.5965 C   0  0  0  0  0  0  0  0  0  0  0  0
   -1.8434   -9.6418    3.4989 C   0  0  0  0  0  0  0  0  0  0  0  0
   -2.2550  -11.0789    3.2240 C   0  0  0  0  0  0  0  0  0  0  0  0
   -1.6743  -11.7212    2.1485 N   0  0  0  0  0  0  0  0  0  0  0  0
   -2.0560  -13.0295    1.8363 C   0  0  0  0  0  0  0  0  0  0  0  0
   -1.6587  -13.9796    0.7985 N   0  0  0  0  0  0  0  0  0  0  0  0
   -2.3408  -15.0731    0.9752 C   0  0  0  0  0  0  0  0  0  0  0  0
   -2.2371  -16.2353    0.1659 O   0  0  0  0  0  0  0  0  0  0  0  0
   -1.3363  -16.2581   -0.9316 C   0  0  0  0  0  0  0  0  0  0  0  0
   -0.0818  -16.0599   -0.4958 C   0  0  0  0  0  0  0  0  0  0  0  0
    0.2022  -14.6337   -0.4539 O   0  0  0  0  0  0  0  0  0  0  0  0
   -0.7694  -13.9650   -1.4451 C   0  0  0  0  0  0  0  0  0  0  0  0
   -0.0108  -13.5641   -2.6931 C   0  0  0  0  0  0  0  0  0  0  0  0
    1.2876  -13.0906   -2.3670 O   0  0  0  0  0  0  0  0  0  0  0  0
    0.0594  -14.6677   -3.4874 C   0  0  0  0  0  0  0  0  0  0  0  0
   -1.1214  -15.4952   -3.2928 O   0  0  0  0  0  0  0  0  0  0  0  0
   -1.6765  -15.1430   -1.8996 C   0  0  0  0  0  0  0  0  0  0  0  0
   -3.1908  -14.9388    2.0771 N   0  0  0  0  0  0  0  0  0  0  0  0
   -3.0258  -13.6805    2.6191 C   0  0  0  0  0  0  0  0  0  0  0  0
   -3.5989  -13.0184    3.6988 C   0  0  0  0  0  0  0  0  0  0  0  0
   -3.2124  -11.7318    4.0007 C   0  0  0  0  0  0  0  0  0  0  0  0
   -3.9400  -10.8950    5.3931 Cl  0  0  0  0  0  0  0  0  0  0  0  0
   -1.2960   -9.2653    4.6939 C   0  0  0  0  0  0  0  0  0  0  0  0
   -0.7810   -8.0035    4.8690 C   0  0  0  0  0  0  0  0  0  0  0  0
    0.8548   -5.4052    4.6162 C   0  0  0  0  0  0  0  0  0  0  0  0
    1.2905   -4.1091    4.7509 C   0  0  0  0  0  0  0  0  0  0  0  0
    0.6798    0.7099   -0.7320 H   0  0  0  0  0  0  0  0  0  0  0  0
    0.6798   -1.0073   -0.4090 H   0  0  0  0  0  0  0  0  0  0  0  0
    2.1064   -0.0555   -0.0748 H   0  0  0  0  0  0  0  0  0  0  0  0
   -1.2802   -0.7511    0.9530 H   0  0  0  0  0  0  0  0  0  0  0  0
   -1.2802    0.3872    2.2786 H   0  0  0  0  0  0  0  0  0  0  0  0
   -1.2802    0.9661    0.6300 H   0  0  0  0  0  0  0  0  0  0  0  0
    0.8864   -2.8548    0.8115 H   0  0  0  0  0  0  0  0  0  0  0  0
    0.8864   -3.4336    2.4601 H   0  0  0  0  0  0  0  0  0  0  0  0
   -0.5402   -2.6683    1.8029 H   0  0  0  0  0  0  0  0  0  0  0  0
    2.0271   -1.7292    5.0304 H   0  0  0  0  0  0  0  0  0  0  0  0
    0.5203   -1.3561    5.8325 H   0  0  0  0  0  0  0  0  0  0  0  0
   -1.4844   -2.4982    3.8326 H   0  0  0  0  0  0  0  0  0  0  0  0
   -2.3041   -4.8556    4.1243 H   0  0  0  0  0  0  0  0  0  0  0  0
   -1.2775   -6.7775    1.8048 H   0  0  0  0  0  0  0  0  0  0  0  0
   -2.6368   -8.8906    1.7640 H   0  0  0  0  0  0  0  0  0  0  0  0
   -1.4160  -17.2088   -1.4161 H   0  0  0  0  0  0  0  0  0  0  0  0
    0.0217  -16.4712    0.4866 H   0  0  0  0  0  0  0  0  0  0  0  0
    0.6058  -16.5403   -1.1602 H   0  0  0  0  0  0  0  0  0  0  0  0
   -1.2680  -13.1217   -1.0147 H   0  0  0  0  0  0  0  0  0  0  0  0
   -0.5287  -12.7778   -3.2014 H   0  0  0  0  0  0  0  0  0  0  0  0
    1.7941  -13.8087   -1.8897 H   0  0  0  0  0  0  0  0  0  0  0  0
    0.9310  -15.2321   -3.2292 H   0  0  0  0  0  0  0  0  0  0  0  0
    0.1148  -14.3642   -4.5119 H   0  0  0  0  0  0  0  0  0  0  0  0
   -2.7298  -14.9566   -1.9239 H   0  0  0  0  0  0  0  0  0  0  0  0
   -3.8293  -15.6546    2.4241 H   0  0  0  0  0  0  0  0  0  0  0  0
   -4.3400  -13.5084    4.2950 H   0  0  0  0  0  0  0  0  0  0  0  0
   -1.2682   -9.9633    5.5044 H   0  0  0  0  0  0  0  0  0  0  0  0
   -0.2927   -7.7530    5.7875 H   0  0  0  0  0  0  0  0  0  0  0  0
    1.5305   -6.2116    4.8110 H   0  0  0  0  0  0  0  0  0  0  0  0
    2.3182   -3.9162    4.9782 H   0  0  0  0  0  0  0  0  0  0  0  0
  1  2  1  0  0  0  0
  1 41  1  0  0  0  0
  1 42  1  0  0  0  0
  1 43  1  0  0  0  0
  2  3  1  0  0  0  0
  2  4  1  0  0  0  0
  3 44  1  0  0  0  0
  3 45  1  0  0  0  0
  3 46  1  0  0  0  0
  4  5  1  0  0  0  0
  4  6  2  0  0  0  0
  4  7  2  0  0  0  0
  5 47  1  0  0  0  0
  5 48  1  0  0  0  0
  5 49  1  0  0  0  0
  7  8  1  0  0  0  0
  8  9  1  0  0  0  0
  8 50  1  0  0  0  0
  8 51  1  0  0  0  0
  9 10  1  0  0  0  0
  9 40  2  0  0  0  0
 10 11  2  0  0  0  0
 10 52  1  0  0  0  0
 11 12  1  0  0  0  0
 11 53  1  0  0  0  0
 12 13  1  0  0  0  0
 12 39  2  0  0  0  0
 13 14  1  0  0  0  0
 13 38  2  0  0  0  0
 14 15  2  0  0  0  0
 14 54  1  0  0  0  0
 15 16  1  0  0  0  0
 15 55  1  0  0  0  0
 16 17  1  0  0  0  0
 16 37  2  0  0  0  0
 17 18  1  0  0  0  0
 17 35  2  0  0  0  0
 18 19  2  0  0  0  0
 19 20  1  0  0  0  0
 19 33  1  0  0  0  0
 20 21  2  0  0  0  0
 21 22  1  0  0  0  0
 21 32  1  0  0  0  0
 22 23  1  0  0  0  0
 23 24  1  0  0  0  0
 23 31  1  0  0  0  0
 23 56  1  0  0  0  0
 24 25  1  0  0  0  0
 24 57  1  0  0  0  0
 24 58  1  0  0  0  0
 25 26  1  0  0  0  0
 26 27  1  0  0  0  0
 26 31  1  0  0  0  0
 26 59  1  0  0  0  0
 27 28  1  0  0  0  0
 27 29  1  0  0  0  0
 27 60  1  0  0  0  0
 28 61  1  0  0  0  0
 29 30  1  0  0  0  0
 29 62  1  0  0  0  0
 29 63  1  0  0  0  0
 30 31  1  0  0  0  0
 31 64  1  0  0  0  0
 32 33  1  0  0  0  0
 32 65  1  0  0  0  0
 33 34  2  0  0  0  0
 34 35  1  0  0  0  0
 34 66  1  0  0  0  0
 35 36  1  0  0  0  0
 37 38  1  0  0  0  0
 37 67  1  0  0  0  0
 38 68  1  0  0  0  0
 39 40  1  0  0  0  0
 39 69  1  0  0  0  0
 40 70  1  0  0  0  0
M  END
