
 OpenBabel03132514253D

 69 73  0  0  0  0  0  0  0  0999 V2000
    1.0514   -0.0451   -0.0730 C   0  0  0  0  0  0  0  0  0  0  0  0
    0.5447   -0.3465    1.3280 C   0  0  0  0  0  0  0  0  0  0  0  0
    1.0514    0.7161    2.2896 C   0  0  0  0  0  0  0  0  0  0  0  0
    1.6984    0.5470    3.4727 C   0  0  0  0  0  0  0  0  0  0  0  0
    1.7550    1.8369    4.0243 C   0  0  0  0  0  0  0  0  0  0  0  0
    2.3826    2.1434    5.3177 N   0  0  0  0  0  0  0  0  0  0  0  0
    2.3960    3.5251    5.8192 C   0  0  0  0  0  0  0  0  0  0  0  0
    2.9386    3.7901    6.9375 O   0  0  0  0  0  0  0  0  0  0  0  0
    1.7819    4.6005    5.0271 N   0  0  0  0  0  0  0  0  0  0  0  0
    1.1543    4.2940    3.7336 C   0  0  0  0  0  0  0  0  0  0  0  0
    1.4392    5.0762    2.6265 C   0  0  0  0  0  0  0  0  0  0  0  0
    0.5974    4.8273    1.5168 C   0  0  0  0  0  0  0  0  0  0  0  0
   -0.1431    3.7442    1.3665 C   0  0  0  0  0  0  0  0  0  0  0  0
   -0.7537    3.3712    0.0254 C   0  0  0  0  0  0  0  0  0  0  0  0
   -2.1003    3.2412   -0.1942 C   0  0  0  0  0  0  0  0  0  0  0  0
   -2.4160    2.8369   -1.4806 N   0  0  0  0  0  0  0  0  0  0  0  0
   -1.3584    2.6380   -2.2129 C   0  0  0  0  0  0  0  0  0  0  0  0
   -1.4329    2.1815   -3.6082 N   0  0  0  0  0  0  0  0  0  0  0  0
   -0.1996    1.9759   -4.3813 C   0  0  0  0  0  0  0  0  0  0  0  0
    0.7451    1.0589   -3.9508 C   0  0  0  0  0  0  0  0  0  0  0  0
    1.8895    0.8619   -4.7084 C   0  0  0  0  0  0  0  0  0  0  0  0
    2.8730   -0.1463   -4.2875 N   0  0  0  0  0  0  0  0  0  0  0  0
    2.5217   -1.5435   -4.0057 C   0  0  0  0  0  0  0  0  0  0  0  0
    3.3987   -2.5042   -4.7853 C   0  0  0  0  0  0  0  0  0  0  0  0
    4.8104   -2.2946   -4.4425 N   0  0  0  0  0  0  0  0  0  0  0  0
    5.0202   -2.5790   -3.0156 C   0  0  0  0  0  0  0  0  0  0  0  0
    4.1550   -1.6489   -2.1810 C   0  0  0  0  0  0  0  0  0  0  0  0
    5.1617   -0.8973   -4.7243 C   0  0  0  0  0  0  0  0  0  0  0  0
    4.2847    0.0634   -3.9447 C   0  0  0  0  0  0  0  0  0  0  0  0
    2.1124    1.5822   -5.8258 N   0  0  0  0  0  0  0  0  0  0  0  0
    1.1531    2.4488   -6.1592 C   0  0  0  0  0  0  0  0  0  0  0  0
    1.3827    3.2664   -7.3934 C   0  0  0  0  0  0  0  0  0  0  0  0
    0.0141    2.6696   -5.5115 N   0  0  0  0  0  0  0  0  0  0  0  0
    0.1422    2.9543   -1.4120 S   0  0  0  0  0  0  0  0  0  0  0  0
   -0.3311    2.9765    2.4822 C   0  0  0  0  0  0  0  0  0  0  0  0
    0.3568    3.2362    3.6428 C   0  0  0  0  0  0  0  0  0  0  0  0
    1.1854    2.7414    3.2575 N   0  0  0  0  0  0  0  0  0  0  0  0
    0.7197    2.0240    2.1382 O   0  0  0  0  0  0  0  0  0  0  0  0
    0.6947    0.9151   -0.3823 H   0  0  0  0  0  0  0  0  0  0  0  0
    0.6948   -0.7931   -0.7499 H   0  0  0  0  0  0  0  0  0  0  0  0
    2.1214   -0.0451   -0.0730 H   0  0  0  0  0  0  0  0  0  0  0  0
   -0.5253   -0.3465    1.3280 H   0  0  0  0  0  0  0  0  0  0  0  0
    0.9014   -1.3067    1.6374 H   0  0  0  0  0  0  0  0  0  0  0  0
    2.0782   -0.3625    3.8892 H   0  0  0  0  0  0  0  0  0  0  0  0
    2.8087    1.3972    5.8674 H   0  0  0  0  0  0  0  0  0  0  0  0
    1.7912    5.5593    5.3750 H   0  0  0  0  0  0  0  0  0  0  0  0
    2.2246    5.8027    2.6118 H   0  0  0  0  0  0  0  0  0  0  0  0
    0.5581    5.5681    0.7457 H   0  0  0  0  0  0  0  0  0  0  0  0
   -2.8376    3.4338    0.5569 H   0  0  0  0  0  0  0  0  0  0  0  0
   -2.3405    2.0073   -4.0400 H   0  0  0  0  0  0  0  0  0  0  0  0
    0.5936    0.5096   -3.0451 H   0  0  0  0  0  0  0  0  0  0  0  0
    2.6713   -1.7237   -2.9616 H   0  0  0  0  0  0  0  0  0  0  0  0
    1.4997   -1.7068   -4.2774 H   0  0  0  0  0  0  0  0  0  0  0  0
    3.2640   -2.3286   -5.8321 H   0  0  0  0  0  0  0  0  0  0  0  0
    3.1222   -3.5095   -4.5448 H   0  0  0  0  0  0  0  0  0  0  0  0
    4.7523   -3.5946   -2.8112 H   0  0  0  0  0  0  0  0  0  0  0  0
    6.0500   -2.4253   -2.7690 H   0  0  0  0  0  0  0  0  0  0  0  0
    3.1252   -1.8026   -2.4277 H   0  0  0  0  0  0  0  0  0  0  0  0
    4.3077   -1.8559   -1.1424 H   0  0  0  0  0  0  0  0  0  0  0  0
    4.4230   -0.6334   -2.3854 H   0  0  0  0  0  0  0  0  0  0  0  0
    5.0121   -0.7172   -5.7683 H   0  0  0  0  0  0  0  0  0  0  0  0
    6.1837   -0.7340   -4.4526 H   0  0  0  0  0  0  0  0  0  0  0  0
    4.5590    1.0671   -4.1942 H   0  0  0  0  0  0  0  0  0  0  0  0
    4.4224   -0.1034   -2.8968 H   0  0  0  0  0  0  0  0  0  0  0  0
    0.6009    3.0752   -8.0985 H   0  0  0  0  0  0  0  0  0  0  0  0
    1.3860    4.3054   -7.1375 H   0  0  0  0  0  0  0  0  0  0  0  0
    2.3253    3.0027   -7.8257 H   0  0  0  0  0  0  0  0  0  0  0  0
   -1.0240    2.1617    2.4510 H   0  0  0  0  0  0  0  0  0  0  0  0
    0.2490    2.5801    4.4812 H   0  0  0  0  0  0  0  0  0  0  0  0
  1  2  1  0  0  0  0
  1 39  1  0  0  0  0
  1 40  1  0  0  0  0
  1 41  1  0  0  0  0
  2  3  1  0  0  0  0
  2 42  1  0  0  0  0
  2 43  1  0  0  0  0
  3  4  2  0  0  0  0
  3 38  1  0  0  0  0
  4  5  1  0  0  0  0
  4 44  1  0  0  0  0
  5  6  1  0  0  0  0
  5 37  2  0  0  0  0
  6  7  1  0  0  0  0
  6 45  1  0  0  0  0
  7  8  2  0  0  0  0
  7  9  1  0  0  0  0
  9 10  1  0  0  0  0
  9 46  1  0  0  0  0
 10 11  1  0  0  0  0
 10 36  2  0  0  0  0
 11 12  2  0  0  0  0
 11 47  1  0  0  0  0
 12 13  1  0  0  0  0
 12 48  1  0  0  0  0
 13 14  1  0  0  0  0
 13 35  2  0  0  0  0
 14 15  2  0  0  0  0
 14 34  1  0  0  0  0
 15 16  1  0  0  0  0
 15 49  1  0  0  0  0
 16 17  2  0  0  0  0
 17 18  1  0  0  0  0
 17 34  1  0  0  0  0
 18 19  1  0  0  0  0
 18 50  1  0  0  0  0
 19 20  1  0  0  0  0
 19 33  2  0  0  0  0
 20 21  2  0  0  0  0
 20 51  1  0  0  0  0
 21 22  1  0  0  0  0
 21 30  1  0  0  0  0
 22 23  1  0  0  0  0
 22 29  1  0  0  0  0
 23 24  1  0  0  0  0
 23 52  1  0  0  0  0
 23 53  1  0  0  0  0
 24 25  1  0  0  0  0
 24 54  1  0  0  0  0
 24 55  1  0  0  0  0
 25 26  1  0  0  0  0
 25 28  1  0  0  0  0
 26 27  1  0  0  0  0
 26 56  1  0  0  0  0
 26 57  1  0  0  0  0
 27 58  1  0  0  0  0
 27 59  1  0  0  0  0
 27 60  1  0  0  0  0
 28 29  1  0  0  0  0
 28 61  1  0  0  0  0
 28 62  1  0  0  0  0
 29 63  1  0  0  0  0
 29 64  1  0  0  0  0
 30 31  2  0  0  0  0
 31 32  1  0  0  0  0
 31 33  1  0  0  0  0
 32 65  1  0  0  0  0
 32 66  1  0  0  0  0
 32 67  1  0  0  0  0
 35 36  1  0  0  0  0
 35 68  1  0  0  0  0
 36 69  1  0  0  0  0
 37 38  1  0  0  0  0
M  END
