REMARK  Name = 
REMARK  9 active torsions:
REMARK  status: ('A' for Active; 'I' for Inactive)
REMARK    1  A    between atoms: C_1  and  N_2
REMARK    2  A    between atoms: S_3  and  N_5
REMARK    3  A    between atoms: S_3  and  C_7
REMARK    4  A    between atoms: N_5  and  C_6
REMARK    5  A    between atoms: C_10  and  C_11
REMARK    6  A    between atoms: C_14  and  C_15
REMARK    7  A    between atoms: C_19  and  O_20
REMARK    8  A    between atoms: O_20  and  C_21
REMARK    9  A    between atoms: C_25  and  O_26
REMARK                            x       y       z     vdW  Elec       q    Type
REMARK                         _______ _______ _______ _____ _____    ______ ____
ROOT
ATOM      1  C   UNL     1      -2.846 -10.420  -5.421  0.00  0.00    +0.000 A 
ATOM      2  N   UNL     1      -2.108 -11.017  -6.423  0.00  0.00    +0.000 NA
ATOM      3  C   UNL     1      -2.509 -12.256  -6.932  0.00  0.00    +0.000 A 
ATOM      4  N   UNL     1      -1.978 -13.146  -7.964  0.00  0.00    +0.000 NA
ATOM      5  C   UNL     1      -2.756 -14.187  -8.032  0.00  0.00    +0.000 A 
ATOM      6  N   UNL     1      -3.797 -14.073  -7.106  0.00  0.00    +0.000 N 
ATOM      7  C   UNL     1      -3.657 -12.884  -6.419  0.00  0.00    +0.000 A 
ATOM      8  C   UNL     1      -4.387 -12.268  -5.409  0.00  0.00    +0.000 A 
ATOM      9  C   UNL     1      -3.982 -11.050  -4.912  0.00  0.00    +0.000 A 
ATOM     10 CL   UNL     1      -4.913 -10.274  -3.608  0.00  0.00    +0.000 Cl
ATOM     11  H   UNL     1      -4.539 -14.757  -6.961  0.00  0.00    +0.000 HD
ENDROOT
BRANCH   1  15
ATOM     12  C   UNL     1      -1.389  -6.585  -4.231  0.00  0.00    +0.000 A 
ATOM     13  C   UNL     1      -1.621  -6.820  -5.577  0.00  0.00    +0.000 A 
ATOM     14  C   UNL     1      -2.304  -8.032  -5.837  0.00  0.00    +0.000 A 
ATOM     15  C   UNL     1      -2.407  -9.032  -4.982  0.00  0.00    +0.000 A 
ATOM     16  C   UNL     1      -2.098  -8.753  -3.679  0.00  0.00    +0.000 A 
ATOM     17  C   UNL     1      -1.549  -7.544  -3.327  0.00  0.00    +0.000 A 
BRANCH  12  21
ATOM     18  C   UNL     1       0.162  -2.824  -2.933  0.00  0.00    +0.000 A 
ATOM     19  C   UNL     1      -1.036  -2.845  -3.627  0.00  0.00    +0.000 A 
ATOM     20  C   UNL     1      -1.566  -4.143  -3.816  0.00  0.00    +0.000 A 
ATOM     21  C   UNL     1      -0.873  -5.260  -3.694  0.00  0.00    +0.000 A 
ATOM     22  C   UNL     1       0.334  -5.161  -3.059  0.00  0.00    +0.000 A 
ATOM     23  C   UNL     1       0.858  -3.935  -2.725  0.00  0.00    +0.000 A 
BRANCH  18  26
ATOM     24  C   UNL     1       1.021   0.074  -0.064  0.00  0.00    +0.000 C 
ATOM     25  N   UNL     1       0.531  -1.101  -0.799  0.00  0.00    +0.000 NA
ATOM     26  S   UNL     1       0.911  -1.296  -2.315  0.00  0.00    +0.000 S 
ATOM     27  O   UNL     1       0.393  -0.108  -3.128  0.00  0.00    +0.000 OA
BRANCH  26  28
ATOM     28  N   UNL     1       2.662  -1.395  -2.472  0.00  0.00    +0.000 NA
ATOM     29  C   UNL     1       3.017  -1.578  -3.887  0.00  0.00    +0.000 C 
ATOM     30  H   UNL     1       3.084  -0.535  -2.124  0.00  0.00    +0.000 HD
ENDBRANCH  26  28
ENDBRANCH  18  26
ENDBRANCH  12  21
ENDBRANCH   1  15
BRANCH   5  31
ATOM     31  O   UNL     1      -2.572 -15.281  -8.918  0.00  0.00    +0.000 OA
BRANCH  31  32
ATOM     32  C   UNL     1      -1.475 -15.290  -9.819  0.00  0.00    +0.000 C 
ATOM     33  C   UNL     1      -0.322 -15.239  -9.132  0.00  0.00    +0.000 C 
ATOM     34  O   UNL     1       0.045 -13.851  -8.894  0.00  0.00    +0.000 OA
ATOM     35  C   UNL     1      -0.661 -13.019  -9.982  0.00  0.00    +0.000 C 
ATOM     36  C   UNL     1       0.357 -12.582 -11.015  0.00  0.00    +0.000 C 
ATOM     37  C   UNL     1       0.508 -13.616 -11.887  0.00  0.00    +0.000 C 
ATOM     38  O   UNL     1      -0.742 -14.351 -12.006  0.00  0.00    +0.000 OA
ATOM     39  C   UNL     1      -1.538 -14.071 -10.718  0.00  0.00    +0.000 C 
BRANCH  36  40
ATOM     40  O   UNL     1       1.593 -12.252 -10.399  0.00  0.00    +0.000 OA
ATOM     41  H   UNL     1       1.944 -13.049  -9.908  0.00  0.00    +0.000 HD
ENDBRANCH  36  40
ENDBRANCH  31  32
ENDBRANCH   5  31
TORSDOF 7
