
 OpenBabel03132512083D

 51 54  0  0  0  0  0  0  0  0999 V2000
    0.9307   -0.0004   -0.0721 O   0  0  0  0  0  0  0  0  0  0  0  0
    2.2016   -0.0004   -0.0721 C   0  0  0  0  0  0  0  0  0  0  0  0
    2.9116    1.1266    0.4200 O   0  0  0  0  0  0  0  0  0  0  0  0
    2.9616   -1.2068   -0.5989 C   0  0  0  0  0  0  0  0  0  0  0  0
    4.0936   -1.8165   -0.1094 C   0  0  0  0  0  0  0  0  0  0  0  0
    4.4640   -2.8582   -0.9177 N   0  0  0  0  0  0  0  0  0  0  0  0
    3.5993   -2.9161   -1.9864 C   0  0  0  0  0  0  0  0  0  0  0  0
    3.6278   -3.7600   -3.1019 C   0  0  0  0  0  0  0  0  0  0  0  0
    2.6567   -3.5339   -4.0570 C   0  0  0  0  0  0  0  0  0  0  0  0
    2.6438   -4.5256   -5.4934 Cl  0  0  0  0  0  0  0  0  0  0  0  0
    1.6876   -2.5215   -3.9448 C   0  0  0  0  0  0  0  0  0  0  0  0
    0.6589   -2.3294   -5.0471 C   0  0  0  0  0  0  0  0  0  0  0  0
    0.6057   -1.1203   -5.7207 C   0  0  0  0  0  0  0  0  0  0  0  0
   -0.5536   -0.9573   -6.5154 C   0  0  0  0  0  0  0  0  0  0  0  0
   -1.3427   -1.9439   -6.9002 C   0  0  0  0  0  0  0  0  0  0  0  0
   -2.2939   -1.7785   -7.9414 O   0  0  0  0  0  0  0  0  0  0  0  0
   -3.1233   -2.8655   -8.3247 C   0  0  0  0  0  0  0  0  0  0  0  0
   -2.2571   -4.0211   -8.7987 C   0  0  0  0  0  0  0  0  0  0  0  0
   -1.3360   -4.4594   -7.6719 C   0  0  0  0  0  0  0  0  0  0  0  0
   -2.1413   -4.8909   -6.5204 N   0  0  0  0  0  0  0  0  0  0  0  0
   -2.2794   -6.3443   -6.2304 C   0  0  0  0  0  0  0  0  0  0  0  0
   -3.2061   -6.6109   -5.0594 C   0  0  0  0  0  0  0  0  0  0  0  0
   -2.8788   -5.7438   -3.9719 O   0  0  0  0  0  0  0  0  0  0  0  0
   -3.2635   -4.4368   -4.3402 C   0  0  0  0  0  0  0  0  0  0  0  0
   -2.7150   -3.9585   -5.6773 C   0  0  0  0  0  0  0  0  0  0  0  0
   -2.8152   -2.7707   -5.9347 O   0  0  0  0  0  0  0  0  0  0  0  0
   -1.1944   -3.1332   -6.2421 C   0  0  0  0  0  0  0  0  0  0  0  0
   -0.1642   -3.3253   -5.3534 C   0  0  0  0  0  0  0  0  0  0  0  0
    1.6697   -1.6986   -2.8299 C   0  0  0  0  0  0  0  0  0  0  0  0
    2.6304   -1.8926   -1.8212 C   0  0  0  0  0  0  0  0  0  0  0  0
    3.9116    1.1266    0.4200 H   0  0  0  0  0  0  0  0  0  0  0  0
    4.6118   -1.5188    0.7781 H   0  0  0  0  0  0  0  0  0  0  0  0
    5.2505   -3.4869   -0.7546 H   0  0  0  0  0  0  0  0  0  0  0  0
    4.3585   -4.5343   -3.2085 H   0  0  0  0  0  0  0  0  0  0  0  0
    1.3717   -0.3769   -5.6468 H   0  0  0  0  0  0  0  0  0  0  0  0
   -0.8088    0.0343   -6.8262 H   0  0  0  0  0  0  0  0  0  0  0  0
   -3.7095   -3.1796   -7.4865 H   0  0  0  0  0  0  0  0  0  0  0  0
   -3.7717   -2.5570   -9.1179 H   0  0  0  0  0  0  0  0  0  0  0  0
   -2.8821   -4.8402   -9.0875 H   0  0  0  0  0  0  0  0  0  0  0  0
   -1.6709   -3.7070   -9.6369 H   0  0  0  0  0  0  0  0  0  0  0  0
   -0.7262   -5.2729   -8.0056 H   0  0  0  0  0  0  0  0  0  0  0  0
   -0.7110   -3.6403   -7.3831 H   0  0  0  0  0  0  0  0  0  0  0  0
   -1.3111   -6.7211   -5.9748 H   0  0  0  0  0  0  0  0  0  0  0  0
   -2.6715   -6.8327   -7.0980 H   0  0  0  0  0  0  0  0  0  0  0  0
   -3.0928   -7.6274   -4.7453 H   0  0  0  0  0  0  0  0  0  0  0  0
   -4.2178   -6.4355   -5.3606 H   0  0  0  0  0  0  0  0  0  0  0  0
   -2.8544   -3.7837   -3.5979 H   0  0  0  0  0  0  0  0  0  0  0  0
   -4.3319   -4.4065   -4.3896 H   0  0  0  0  0  0  0  0  0  0  0  0
   -1.8906   -3.9256   -6.4217 H   0  0  0  0  0  0  0  0  0  0  0  0
   -0.0240   -4.2863   -4.9041 H   0  0  0  0  0  0  0  0  0  0  0  0
    0.9349   -0.9263   -2.7377 H   0  0  0  0  0  0  0  0  0  0  0  0
  1  2  2  0  0  0  0
  2  3  1  0  0  0  0
  2  4  1  0  0  0  0
  3 31  1  0  0  0  0
  4  5  2  0  0  0  0
  4 30  1  0  0  0  0
  5  6  1  0  0  0  0
  5 32  1  0  0  0  0
  6  7  1  0  0  0  0
  6 33  1  0  0  0  0
  7  8  1  0  0  0  0
  7 30  2  0  0  0  0
  8  9  2  0  0  0  0
  8 34  1  0  0  0  0
  9 10  1  0  0  0  0
  9 11  1  0  0  0  0
 11 12  1  0  0  0  0
 11 29  2  0  0  0  0
 12 13  1  0  0  0  0
 12 28  2  0  0  0  0
 13 14  2  0  0  0  0
 13 35  1  0  0  0  0
 14 15  1  0  0  0  0
 14 36  1  0  0  0  0
 15 16  1  0  0  0  0
 15 27  2  0  0  0  0
 16 17  1  0  0  0  0
 17 18  1  0  0  0  0
 17 37  1  0  0  0  0
 17 38  1  0  0  0  0
 18 19  1  0  0  0  0
 18 39  1  0  0  0  0
 18 40  1  0  0  0  0
 19 20  1  0  0  0  0
 19 41  1  0  0  0  0
 19 42  1  0  0  0  0
 20 21  1  0  0  0  0
 20 25  1  0  0  0  0
 21 22  1  0  0  0  0
 21 43  1  0  0  0  0
 21 44  1  0  0  0  0
 22 23  1  0  0  0  0
 22 45  1  0  0  0  0
 22 46  1  0  0  0  0
 23 24  1  0  0  0  0
 24 25  1  0  0  0  0
 24 47  1  0  0  0  0
 24 48  1  0  0  0  0
 25 26  2  0  0  0  0
 27 28  1  0  0  0  0
 27 49  1  0  0  0  0
 28 50  1  0  0  0  0
 29 30  1  0  0  0  0
 29 51  1  0  0  0  0
M  END
