REMARK  Name = 
REMARK  5 active torsions:
REMARK  status: ('A' for Active; 'I' for Inactive)
REMARK    1  A    between atoms: C_2  and  O_3
REMARK    2  A    between atoms: C_2  and  C_4
REMARK    3  A    between atoms: C_11  and  C_12
REMARK    4  A    between atoms: C_15  and  C_16
REMARK    5  A    between atoms: C_18  and  O_19
REMARK                            x       y       z     vdW  Elec       q    Type
REMARK                         _______ _______ _______ _____ _____    ______ ____
ROOT
ATOM      1  C   UNL     1       3.047   1.009  -0.897  0.00  0.00    +0.000 A 
ATOM      2  N   UNL     1       4.146   0.727  -1.534  0.00  0.00    +0.000 NA
ATOM      3  N   UNL     1       4.701   1.889  -2.077  0.00  0.00    +0.000 N 
ATOM      4  C   UNL     1       3.894   2.962  -1.757  0.00  0.00    +0.000 A 
ATOM      5  C   UNL     1       3.957   4.324  -2.028  0.00  0.00    +0.000 A 
ATOM      6  C   UNL     1       2.970   5.165  -1.563  0.00  0.00    +0.000 A 
ATOM      7 CL   UNL     1       3.049   6.905  -1.926  0.00  0.00    +0.000 Cl
ATOM      8  C   UNL     1       1.909   4.662  -0.810  0.00  0.00    +0.000 A 
ATOM      9  C   UNL     1       1.829   3.312  -0.532  0.00  0.00    +0.000 A 
ATOM     10  C   UNL     1       2.823   2.450  -1.003  0.00  0.00    +0.000 A 
ATOM     11  H   UNL     1       5.562   1.937  -2.622  0.00  0.00    +0.000 HD
ENDROOT
BRANCH   8  12
ATOM     12  C   UNL     1       0.835   5.606  -0.293  0.00  0.00    +0.000 A 
ATOM     13  C   UNL     1       0.032   6.394  -1.164  0.00  0.00    +0.000 A 
ATOM     14  C   UNL     1      -0.748   7.433  -0.630  0.00  0.00    +0.000 A 
ATOM     15  C   UNL     1      -0.950   7.502   0.653  0.00  0.00    +0.000 A 
ATOM     16  C   UNL     1      -0.400   6.534   1.503  0.00  0.00    +0.000 A 
ATOM     17  C   UNL     1       0.619   5.676   1.022  0.00  0.00    +0.000 A 
BRANCH  15  18
ATOM     18  C   UNL     1      -1.784   8.634   1.230  0.00  0.00    +0.000 C 
ATOM     19  C   UNL     1      -1.112   9.569   2.243  0.00  0.00    +0.000 C 
ATOM     20  C   UNL     1      -2.387   9.440   3.152  0.00  0.00    +0.000 C 
ATOM     21  C   UNL     1      -2.733   8.174   2.350  0.00  0.00    +0.000 C 
BRANCH  20  22
ATOM     22  O   UNL     1      -3.227  10.520   2.809  0.00  0.00    +0.000 OA
ATOM     23  H   UNL     1      -3.281  10.597   1.814  0.00  0.00    +0.000 HD
ENDBRANCH  20  22
ENDBRANCH  15  18
ENDBRANCH   8  12
BRANCH   1  25
ATOM     24  O   UNL     1       1.016  -0.033  -0.093  0.00  0.00    +0.000 OA
ATOM     25  C   UNL     1       2.287  -0.033  -0.093  0.00  0.00    +0.000 C 
BRANCH  25  26
ATOM     26  O   UNL     1       2.997  -1.007   0.658  0.00  0.00    +0.000 OA
ATOM     27  H   UNL     1       3.997  -1.007   0.658  0.00  0.00    +0.000 HD
ENDBRANCH  25  26
ENDBRANCH   1  25
TORSDOF 5
