REMARK  Name = 
REMARK  11 active torsions:
REMARK  status: ('A' for Active; 'I' for Inactive)
REMARK    1  A    between atoms: S_2  and  C_4
REMARK    2  A    between atoms: S_2  and  C_40
REMARK    3  A    between atoms: C_4  and  C_5
REMARK    4  A    between atoms: C_5  and  O_6
REMARK    5  A    between atoms: O_6  and  C_7
REMARK    6  A    between atoms: C_7  and  C_8
REMARK    7  A    between atoms: C_11  and  C_12
REMARK    8  A    between atoms: N_20  and  C_21
REMARK    9  A    between atoms: C_24  and  O_25
REMARK   10  A    between atoms: O_25  and  C_26
REMARK   11  A    between atoms: C_26  and  C_27
REMARK                            x       y       z     vdW  Elec       q    Type
REMARK                         _______ _______ _______ _____ _____    ______ ____
ROOT
ATOM      1  C   UNL     1      -2.139   3.883   0.521  0.00  0.00    +0.000 A 
ATOM      2  C   UNL     1      -3.084   3.811   1.563  0.00  0.00    +0.000 A 
ATOM      3  C   UNL     1      -4.191   4.612   1.559  0.00  0.00    +0.000 A 
ATOM      4  C   UNL     1      -4.389   5.548   0.519  0.00  0.00    +0.000 A 
ATOM      5  N   UNL     1      -5.487   6.369   0.540  0.00  0.00    +0.000 NA
ATOM      6  C   UNL     1      -5.607   7.206  -0.454  0.00  0.00    +0.000 A 
ATOM      7  N   UNL     1      -4.762   7.340  -1.522  0.00  0.00    +0.000 NA
ATOM      8  C   UNL     1      -3.715   6.552  -1.562  0.00  0.00    +0.000 A 
ATOM      9  N   UNL     1      -2.795   6.645  -2.704  0.00  0.00    +0.000 N 
ATOM     10  C   UNL     1      -3.445   5.608  -0.531  0.00  0.00    +0.000 A 
ATOM     11  C   UNL     1      -2.315   4.758  -0.513  0.00  0.00    +0.000 A 
ATOM     12  H   UNL     1      -1.976   6.038  -2.751  0.00  0.00    +0.000 HD
ENDROOT
BRANCH   9  13
ATOM     13  C   UNL     1      -3.054   7.612  -3.781  0.00  0.00    +0.000 A 
ATOM     14  C   UNL     1      -3.105   8.957  -3.450  0.00  0.00    +0.000 A 
ATOM     15  C   UNL     1      -3.180   9.924  -4.446  0.00  0.00    +0.000 A 
ATOM     16  C   UNL     1      -3.228   9.540  -5.782  0.00  0.00    +0.000 A 
ATOM     17  C   UNL     1      -3.208   8.190  -6.091  0.00  0.00    +0.000 A 
ATOM     18 CL   UNL     1      -3.284   7.722  -7.762  0.00  0.00    +0.000 Cl
ATOM     19  C   UNL     1      -3.091   7.212  -5.115  0.00  0.00    +0.000 A 
BRANCH  16  20
ATOM     20  O   UNL     1      -3.295  10.515  -6.812  0.00  0.00    +0.000 OA
BRANCH  20  21
ATOM     21  C   UNL     1      -3.343  10.110  -8.172  0.00  0.00    +0.000 C 
BRANCH  21  22
ATOM     22  C   UNL     1      -2.095   9.309  -8.506  0.00  0.00    +0.000 A 
ATOM     23  C   UNL     1      -0.930   9.946  -8.823  0.00  0.00    +0.000 A 
ATOM     24  C   UNL     1       0.184   9.184  -9.141  0.00  0.00    +0.000 A 
ATOM     25  C   UNL     1       0.117   7.800  -9.150  0.00  0.00    +0.000 A 
ATOM     26  C   UNL     1      -1.051   7.223  -8.815  0.00  0.00    +0.000 A 
ATOM     27  F   UNL     1      -1.122   5.867  -8.819  0.00  0.00    +0.000 F 
ATOM     28  C   UNL     1      -2.161   7.925  -8.493  0.00  0.00    +0.000 A 
ENDBRANCH  21  22
ENDBRANCH  20  21
ENDBRANCH  16  20
ENDBRANCH   9  13
BRANCH   1  32
ATOM     29  C   UNL     1       1.139   2.291   0.568  0.00  0.00    +0.000 A 
ATOM     30  C   UNL     1       0.395   1.176   0.568  0.00  0.00    +0.000 A 
ATOM     31  C   UNL     1      -0.949   1.625   0.552  0.00  0.00    +0.000 A 
ATOM     32  C   UNL     1      -0.916   2.982   0.547  0.00  0.00    +0.000 A 
ATOM     33  O   UNL     1       0.386   3.420   0.569  0.00  0.00    +0.000 OA
BRANCH  29  34
ATOM     34  C   UNL     1       2.659   2.291   0.568  0.00  0.00    +0.000 C 
BRANCH  34  35
ATOM     35  O   UNL     1       3.132   2.800  -0.670  0.00  0.00    +0.000 OA
BRANCH  35  36
ATOM     36  C   UNL     1       2.659   1.983  -1.730  0.00  0.00    +0.000 C 
BRANCH  36  37
ATOM     37  C   UNL     1       3.165   0.563  -1.539  0.00  0.00    +0.000 C 
BRANCH  37  39
ATOM     38  O   UNL     1       1.031  -0.087   0.039  0.00  0.00    +0.000 OA
ATOM     39  S   UNL     1       2.562  -0.087   0.039  0.00  0.00    +0.000 S 
ATOM     40  O   UNL     1       3.072  -1.517   0.231  0.00  0.00    +0.000 OA
BRANCH  39  41
ATOM     41  C   UNL     1       3.165   0.956   1.390  0.00  0.00    +0.000 A 
ATOM     42  C   UNL     1       3.550   0.395   2.597  0.00  0.00    +0.000 A 
ATOM     43  C   UNL     1       3.532   1.302   3.682  0.00  0.00    +0.000 A 
ATOM     44  C   UNL     1       3.516   2.616   3.560  0.00  0.00    +0.000 A 
ATOM     45  C   UNL     1       3.195   3.108   2.325  0.00  0.00    +0.000 A 
ATOM     46  C   UNL     1       3.067   2.272   1.243  0.00  0.00    +0.000 A 
ENDBRANCH  39  41
ENDBRANCH  37  39
ENDBRANCH  36  37
ENDBRANCH  35  36
ENDBRANCH  34  35
ENDBRANCH  29  34
ENDBRANCH   1  32
TORSDOF 11
