
 OpenBabel03132514253D

 45 48  0  0  0  0  0  0  0  0999 V2000
    1.0709   -0.0466   -0.0529 C   0  0  0  0  0  0  0  0  0  0  0  0
    0.5976   -1.2230    0.5862 O   0  0  0  0  0  0  0  0  0  0  0  0
    0.9406   -2.4997    0.0677 C   0  0  0  0  0  0  0  0  0  0  0  0
    2.2310   -2.7977   -0.3237 C   0  0  0  0  0  0  0  0  0  0  0  0
    2.4926   -4.0137   -0.9600 C   0  0  0  0  0  0  0  0  0  0  0  0
    1.4259   -4.8825   -1.1526 C   0  0  0  0  0  0  0  0  0  0  0  0
    1.6371   -6.2197   -1.8439 C   0  0  0  0  0  0  0  0  0  0  0  0
    0.9100   -6.6366   -2.9533 C   0  0  0  0  0  0  0  0  0  0  0  0
    1.0643   -7.9298   -3.4322 C   0  0  0  0  0  0  0  0  0  0  0  0
    1.9716   -8.8146   -2.8635 C   0  0  0  0  0  0  0  0  0  0  0  0
    2.7342   -8.4079   -1.7761 C   0  0  0  0  0  0  0  0  0  0  0  0
    2.5120   -7.1210   -1.2844 C   0  0  0  0  0  0  0  0  0  0  0  0
    3.3020   -6.9234   -0.1466 N   0  0  0  0  0  0  0  0  0  0  0  0
    4.0450   -8.0224    0.1336 C   0  0  0  0  0  0  0  0  0  0  0  0
    4.8265   -8.1202    1.0812 O   0  0  0  0  0  0  0  0  0  0  0  0
    3.7378   -9.0389   -0.9173 C   0  0  0  0  0  0  0  0  0  0  0  0
    4.3824  -10.2183   -0.9525 C   0  0  0  0  0  0  0  0  0  0  0  0
    4.1016  -11.2047   -2.0744 C   0  0  0  0  0  0  0  0  0  0  0  0
    4.2734  -11.0118   -3.4240 N   0  0  0  0  0  0  0  0  0  0  0  0
    4.0790  -12.1794   -4.1007 C   0  0  0  0  0  0  0  0  0  0  0  0
    4.1711  -12.2420   -5.5863 C   0  0  0  0  0  0  0  0  0  0  0  0
    3.7984  -13.1507   -3.1719 C   0  0  0  0  0  0  0  0  0  0  0  0
    3.8009  -12.5302   -1.8795 C   0  0  0  0  0  0  0  0  0  0  0  0
    3.5631  -13.2245   -0.5624 C   0  0  0  0  0  0  0  0  0  0  0  0
    0.1756   -4.5166   -0.7094 C   0  0  0  0  0  0  0  0  0  0  0  0
   -0.0844   -3.3458   -0.1194 N   0  0  0  0  0  0  0  0  0  0  0  0
    0.7142    0.8136    0.4740 H   0  0  0  0  0  0  0  0  0  0  0  0
    0.7142   -0.0204   -1.0614 H   0  0  0  0  0  0  0  0  0  0  0  0
    2.1409   -0.0466   -0.0529 H   0  0  0  0  0  0  0  0  0  0  0  0
    3.0240   -2.1029   -0.1411 H   0  0  0  0  0  0  0  0  0  0  0  0
    3.4794   -4.2668   -1.2872 H   0  0  0  0  0  0  0  0  0  0  0  0
    0.2337   -5.9625   -3.4362 H   0  0  0  0  0  0  0  0  0  0  0  0
    0.4694   -8.2536   -4.2605 H   0  0  0  0  0  0  0  0  0  0  0  0
    2.0822   -9.8022   -3.2601 H   0  0  0  0  0  0  0  0  0  0  0  0
    3.3172   -6.0632    0.4014 H   0  0  0  0  0  0  0  0  0  0  0  0
    5.0931  -10.4625   -0.1908 H   0  0  0  0  0  0  0  0  0  0  0  0
    4.5126  -10.1205   -3.8584 H   0  0  0  0  0  0  0  0  0  0  0  0
    4.9347  -12.9370   -5.8673 H   0  0  0  0  0  0  0  0  0  0  0  0
    3.2325  -12.5614   -5.9887 H   0  0  0  0  0  0  0  0  0  0  0  0
    4.4124  -11.2727   -5.9699 H   0  0  0  0  0  0  0  0  0  0  0  0
    3.6116  -14.1843   -3.3759 H   0  0  0  0  0  0  0  0  0  0  0  0
    2.5912  -13.6722   -0.5655 H   0  0  0  0  0  0  0  0  0  0  0  0
    4.3045  -13.9826   -0.4198 H   0  0  0  0  0  0  0  0  0  0  0  0
    3.6246  -12.5113    0.2329 H   0  0  0  0  0  0  0  0  0  0  0  0
   -0.6314   -5.2061   -0.8443 H   0  0  0  0  0  0  0  0  0  0  0  0
  1  2  1  0  0  0  0
  1 27  1  0  0  0  0
  1 28  1  0  0  0  0
  1 29  1  0  0  0  0
  2  3  1  0  0  0  0
  3  4  1  0  0  0  0
  3 26  2  0  0  0  0
  4  5  2  0  0  0  0
  4 30  1  0  0  0  0
  5  6  1  0  0  0  0
  5 31  1  0  0  0  0
  6  7  1  0  0  0  0
  6 25  2  0  0  0  0
  7  8  1  0  0  0  0
  7 12  2  0  0  0  0
  8  9  2  0  0  0  0
  8 32  1  0  0  0  0
  9 10  1  0  0  0  0
  9 33  1  0  0  0  0
 10 11  2  0  0  0  0
 10 34  1  0  0  0  0
 11 12  1  0  0  0  0
 11 16  1  0  0  0  0
 12 13  1  0  0  0  0
 13 14  1  0  0  0  0
 13 35  1  0  0  0  0
 14 15  2  0  0  0  0
 14 16  1  0  0  0  0
 16 17  2  0  0  0  0
 17 18  1  0  0  0  0
 17 36  1  0  0  0  0
 18 19  1  0  0  0  0
 18 23  2  0  0  0  0
 19 20  1  0  0  0  0
 19 37  1  0  0  0  0
 20 21  1  0  0  0  0
 20 22  2  0  0  0  0
 21 38  1  0  0  0  0
 21 39  1  0  0  0  0
 21 40  1  0  0  0  0
 22 23  1  0  0  0  0
 22 41  1  0  0  0  0
 23 24  1  0  0  0  0
 24 42  1  0  0  0  0
 24 43  1  0  0  0  0
 24 44  1  0  0  0  0
 25 26  1  0  0  0  0
 25 45  1  0  0  0  0
M  END
