
 OpenBabel03132514253D

 44 47  0  0  0  0  0  0  0  0999 V2000
    0.9169    0.0476   -0.0287 C   0  0  0  0  0  0  0  0  0  0  0  0
    0.4436   -0.1918    1.2885 O   0  0  0  0  0  0  0  0  0  0  0  0
    0.7866   -1.3960    1.9582 C   0  0  0  0  0  0  0  0  0  0  0  0
   -0.1852   -2.1329    2.5110 N   0  0  0  0  0  0  0  0  0  0  0  0
    0.2244   -3.3293    2.9578 C   0  0  0  0  0  0  0  0  0  0  0  0
    1.5091   -3.7673    2.8941 C   0  0  0  0  0  0  0  0  0  0  0  0
    1.9130   -5.1367    3.4157 C   0  0  0  0  0  0  0  0  0  0  0  0
    2.9298   -5.1656    4.3615 C   0  0  0  0  0  0  0  0  0  0  0  0
    3.4560   -6.3614    4.8291 C   0  0  0  0  0  0  0  0  0  0  0  0
    2.9257   -7.5686    4.3879 C   0  0  0  0  0  0  0  0  0  0  0  0
    1.9044   -7.5138    3.4688 C   0  0  0  0  0  0  0  0  0  0  0  0
    1.3920   -6.3309    2.9344 C   0  0  0  0  0  0  0  0  0  0  0  0
    0.3346   -6.6972    1.9906 C   0  0  0  0  0  0  0  0  0  0  0  0
   -0.4393   -5.9963    1.1436 C   0  0  0  0  0  0  0  0  0  0  0  0
   -0.2857   -4.4872    1.0458 C   0  0  0  0  0  0  0  0  0  0  0  0
    0.8443   -3.7929    0.6865 N   0  0  0  0  0  0  0  0  0  0  0  0
    0.6064   -2.4506    0.7102 C   0  0  0  0  0  0  0  0  0  0  0  0
    1.6780   -1.4650    0.3944 C   0  0  0  0  0  0  0  0  0  0  0  0
   -0.7066   -2.2723    1.0694 C   0  0  0  0  0  0  0  0  0  0  0  0
   -1.2755   -3.5687    1.2952 C   0  0  0  0  0  0  0  0  0  0  0  0
   -2.7035   -3.8543    1.6861 C   0  0  0  0  0  0  0  0  0  0  0  0
    0.2537   -8.1876    2.0565 C   0  0  0  0  0  0  0  0  0  0  0  0
   -0.5073   -8.9361    1.4407 O   0  0  0  0  0  0  0  0  0  0  0  0
    1.2044   -8.5995    2.9310 N   0  0  0  0  0  0  0  0  0  0  0  0
    2.4251   -2.9083    2.3338 C   0  0  0  0  0  0  0  0  0  0  0  0
    2.0880   -1.7244    1.8399 N   0  0  0  0  0  0  0  0  0  0  0  0
    0.5602    0.9974   -0.3687 H   0  0  0  0  0  0  0  0  0  0  0  0
    0.5602   -0.7217   -0.6813 H   0  0  0  0  0  0  0  0  0  0  0  0
    1.9869    0.0476   -0.0287 H   0  0  0  0  0  0  0  0  0  0  0  0
   -0.5063   -3.9797    3.3914 H   0  0  0  0  0  0  0  0  0  0  0  0
    3.3172   -4.2424    4.7391 H   0  0  0  0  0  0  0  0  0  0  0  0
    4.2672   -6.3546    5.5269 H   0  0  0  0  0  0  0  0  0  0  0  0
    3.2980   -8.5042    4.7496 H   0  0  0  0  0  0  0  0  0  0  0  0
   -1.1632   -6.5007    0.5383 H   0  0  0  0  0  0  0  0  0  0  0  0
    1.7356   -4.2215    0.4371 H   0  0  0  0  0  0  0  0  0  0  0  0
    1.3783   -0.8678   -0.4413 H   0  0  0  0  0  0  0  0  0  0  0  0
    1.8436   -0.8341    1.2425 H   0  0  0  0  0  0  0  0  0  0  0  0
    2.5819   -1.9854    0.1551 H   0  0  0  0  0  0  0  0  0  0  0  0
   -1.2138   -1.3349    1.1637 H   0  0  0  0  0  0  0  0  0  0  0  0
   -2.9201   -3.3774    2.6191 H   0  0  0  0  0  0  0  0  0  0  0  0
   -3.3620   -3.4775    0.9316 H   0  0  0  0  0  0  0  0  0  0  0  0
   -2.8417   -4.9107    1.7849 H   0  0  0  0  0  0  0  0  0  0  0  0
    1.3861   -9.5752    3.1665 H   0  0  0  0  0  0  0  0  0  0  0  0
    3.4517   -3.2071    2.2947 H   0  0  0  0  0  0  0  0  0  0  0  0
  1  2  1  0  0  0  0
  1 27  1  0  0  0  0
  1 28  1  0  0  0  0
  1 29  1  0  0  0  0
  2  3  1  0  0  0  0
  3  4  1  0  0  0  0
  3 26  2  0  0  0  0
  4  5  2  0  0  0  0
  5  6  1  0  0  0  0
  5 30  1  0  0  0  0
  6  7  1  0  0  0  0
  6 25  2  0  0  0  0
  7  8  1  0  0  0  0
  7 12  2  0  0  0  0
  8  9  2  0  0  0  0
  8 31  1  0  0  0  0
  9 10  1  0  0  0  0
  9 32  1  0  0  0  0
 10 11  2  0  0  0  0
 10 33  1  0  0  0  0
 11 12  1  0  0  0  0
 11 24  1  0  0  0  0
 12 13  1  0  0  0  0
 13 14  2  0  0  0  0
 13 22  1  0  0  0  0
 14 15  1  0  0  0  0
 14 34  1  0  0  0  0
 15 16  1  0  0  0  0
 15 20  2  0  0  0  0
 16 17  1  0  0  0  0
 16 35  1  0  0  0  0
 17 18  1  0  0  0  0
 17 19  2  0  0  0  0
 18 36  1  0  0  0  0
 18 37  1  0  0  0  0
 18 38  1  0  0  0  0
 19 20  1  0  0  0  0
 19 39  1  0  0  0  0
 20 21  1  0  0  0  0
 21 40  1  0  0  0  0
 21 41  1  0  0  0  0
 21 42  1  0  0  0  0
 22 23  2  0  0  0  0
 22 24  1  0  0  0  0
 24 43  1  0  0  0  0
 25 26  1  0  0  0  0
 25 44  1  0  0  0  0
M  END
