REMARK  Name = 
REMARK  11 active torsions:
REMARK  status: ('A' for Active; 'I' for Inactive)
REMARK    1  A    between atoms: C_1  and  C_2
REMARK    2  A    between atoms: C_2  and  C_3
REMARK    3  A    between atoms: C_2  and  C_5
REMARK    4  A    between atoms: C_2  and  C_7
REMARK    5  A    between atoms: C_3  and  O_4
REMARK    6  A    between atoms: C_5  and  O_6
REMARK    7  A    between atoms: C_10  and  C_11
REMARK    8  A    between atoms: C_14  and  C_15
REMARK    9  A    between atoms: C_19  and  O_20
REMARK   10  A    between atoms: O_20  and  C_21
REMARK   11  A    between atoms: C_25  and  O_26
REMARK                            x       y       z     vdW  Elec       q    Type
REMARK                         _______ _______ _______ _____ _____    ______ ____
ROOT
ATOM      1  C   UNL     1       3.511   0.740  10.390  0.00  0.00    +0.000 A 
ATOM      2  N   UNL     1       4.774   1.216  10.679  0.00  0.00    +0.000 NA
ATOM      3  C   UNL     1       5.239   1.187  11.998  0.00  0.00    +0.000 A 
ATOM      4  N   UNL     1       6.487   1.595  12.641  0.00  0.00    +0.000 NA
ATOM      5  C   UNL     1       6.384   1.339  13.912  0.00  0.00    +0.000 A 
ATOM      6  N   UNL     1       5.135   0.776  14.191  0.00  0.00    +0.000 N 
ATOM      7  C   UNL     1       4.417   0.675  13.017  0.00  0.00    +0.000 A 
ATOM      8  C   UNL     1       3.147   0.201  12.707  0.00  0.00    +0.000 A 
ATOM      9  C   UNL     1       2.697   0.239  11.407  0.00  0.00    +0.000 A 
ATOM     10 CL   UNL     1       1.065  -0.356  11.019  0.00  0.00    +0.000 Cl
ATOM     11  H   UNL     1       4.808   0.486  15.113  0.00  0.00    +0.000 HD
ENDROOT
BRANCH   1  15
ATOM     12  C   UNL     1       2.222   0.995   6.326  0.00  0.00    +0.000 A 
ATOM     13  C   UNL     1       3.403   0.329   6.609  0.00  0.00    +0.000 A 
ATOM     14  C   UNL     1       3.623   0.113   7.989  0.00  0.00    +0.000 A 
ATOM     15  C   UNL     1       3.003   0.763   8.957  0.00  0.00    +0.000 A 
ATOM     16  C   UNL     1       1.881   1.458   8.601  0.00  0.00    +0.000 A 
ATOM     17  C   UNL     1       1.529   1.603   7.281  0.00  0.00    +0.000 A 
BRANCH  12  21
ATOM     18  C   UNL     1       1.007   1.081   2.232  0.00  0.00    +0.000 A 
ATOM     19  C   UNL     1       1.238  -0.146   2.832  0.00  0.00    +0.000 A 
ATOM     20  C   UNL     1       1.419  -0.075   4.233  0.00  0.00    +0.000 A 
ATOM     21  C   UNL     1       1.710   1.030   4.895  0.00  0.00    +0.000 A 
ATOM     22  C   UNL     1       1.525   2.208   4.225  0.00  0.00    +0.000 A 
ATOM     23  C   UNL     1       1.218   2.217   2.886  0.00  0.00    +0.000 A 
BRANCH  18  25
ATOM     24  C   UNL     1       1.007  -0.090   0.043  0.00  0.00    +0.000 C 
ATOM     25  C   UNL     1       0.500   1.127   0.800  0.00  0.00    +0.000 C 
BRANCH  25  26
ATOM     26  C   UNL     1       1.007   2.391   0.124  0.00  0.00    +0.000 C 
BRANCH  26  27
ATOM     27  O   UNL     1       0.534   2.434  -1.214  0.00  0.00    +0.000 OA
ATOM     28  H   UNL     1       0.867   1.634  -1.712  0.00  0.00    +0.000 HD
ENDBRANCH  26  27
ENDBRANCH  25  26
BRANCH  25  29
ATOM     29  C   UNL     1      -1.020   1.127   0.800  0.00  0.00    +0.000 C 
BRANCH  29  30
ATOM     30  O   UNL     1      -1.493  -0.053   1.431  0.00  0.00    +0.000 OA
ATOM     31  H   UNL     1      -1.159  -0.854   0.934  0.00  0.00    +0.000 HD
ENDBRANCH  29  30
ENDBRANCH  25  29
ENDBRANCH  18  25
ENDBRANCH  12  21
ENDBRANCH   1  15
BRANCH   5  32
ATOM     32  O   UNL     1       7.394   1.596  14.877  0.00  0.00    +0.000 OA
BRANCH  32  33
ATOM     33  C   UNL     1       8.627   2.174  14.477  0.00  0.00    +0.000 C 
ATOM     34  C   UNL     1       8.392   3.373  13.920  0.00  0.00    +0.000 C 
ATOM     35  O   UNL     1       8.255   3.225  12.479  0.00  0.00    +0.000 OA
ATOM     36  C   UNL     1       8.995   1.928  12.100  0.00  0.00    +0.000 C 
ATOM     37  C   UNL     1      10.306   2.280  11.429  0.00  0.00    +0.000 C 
ATOM     38  C   UNL     1      11.208   2.519  12.420  0.00  0.00    +0.000 C 
ATOM     39  O   UNL     1      10.901   1.696  13.580  0.00  0.00    +0.000 OA
ATOM     40  C   UNL     1       9.406   1.340  13.479  0.00  0.00    +0.000 C 
BRANCH  37  41
ATOM     41  O   UNL     1      10.158   3.417  10.592  0.00  0.00    +0.000 OA
ATOM     42  H   UNL     1       9.848   4.195  11.139  0.00  0.00    +0.000 HD
ENDBRANCH  37  41
ENDBRANCH  32  33
ENDBRANCH   5  32
TORSDOF 10
