
 OpenBabel03132512093D

 41 45  0  0  0  0  0  0  0  0999 V2000
    0.9271   -0.0680   -0.0085 C   0  0  0  0  0  0  0  0  0  0  0  0
    0.4538    1.2102    0.3897 O   0  0  0  0  0  0  0  0  0  0  0  0
    0.7969    1.7282    1.6665 C   0  0  0  0  0  0  0  0  0  0  0  0
   -0.1324    2.4384    2.4134 C   0  0  0  0  0  0  0  0  0  0  0  0
    0.2442    3.0055    3.6257 C   0  0  0  0  0  0  0  0  0  0  0  0
    1.5540    2.8548    4.0161 C   0  0  0  0  0  0  0  0  0  0  0  0
    2.5272    2.1979    3.2619 C   0  0  0  0  0  0  0  0  0  0  0  0
    2.1203    1.6093    2.0714 C   0  0  0  0  0  0  0  0  0  0  0  0
    3.7830    2.2654    4.0110 C   0  0  0  0  0  0  0  0  0  0  0  0
    5.0442    1.8808    3.7480 C   0  0  0  0  0  0  0  0  0  0  0  0
    5.3757    1.2189    2.4205 C   0  0  0  0  0  0  0  0  0  0  0  0
    5.2246    1.7234    1.1604 C   0  0  0  0  0  0  0  0  0  0  0  0
    4.8378    3.1598    0.8481 C   0  0  0  0  0  0  0  0  0  0  0  0
    3.6904    3.4485    0.1359 C   0  0  0  0  0  0  0  0  0  0  0  0
    3.4030    4.7748   -0.1957 C   0  0  0  0  0  0  0  0  0  0  0  0
    4.2922    5.7529    0.2313 C   0  0  0  0  0  0  0  0  0  0  0  0
    5.3996    5.3800    0.9580 C   0  0  0  0  0  0  0  0  0  0  0  0
    5.6908    4.1108    1.2598 N   0  0  0  0  0  0  0  0  0  0  0  0
    5.4714    0.7489    0.2029 N   0  0  0  0  0  0  0  0  0  0  0  0
    5.7719   -0.3101    0.9104 C   0  0  0  0  0  0  0  0  0  0  0  0
    6.2323   -1.9430    0.5718 S   0  0  0  0  0  0  0  0  0  0  0  0
    6.3338   -2.2552    2.2845 C   0  0  0  0  0  0  0  0  0  0  0  0
    6.0355   -1.2021    3.0473 C   0  0  0  0  0  0  0  0  0  0  0  0
    5.7274   -0.0954    2.2548 N   0  0  0  0  0  0  0  0  0  0  0  0
    3.4424    2.9806    5.2778 C   0  0  0  0  0  0  0  0  0  0  0  0
    4.1871    3.2547    6.2205 O   0  0  0  0  0  0  0  0  0  0  0  0
    2.1275    3.3047    5.2105 N   0  0  0  0  0  0  0  0  0  0  0  0
    0.5705   -0.2897   -0.9927 H   0  0  0  0  0  0  0  0  0  0  0  0
    0.5705   -0.8094    0.6755 H   0  0  0  0  0  0  0  0  0  0  0  0
    1.9971   -0.0680   -0.0085 H   0  0  0  0  0  0  0  0  0  0  0  0
   -1.1354    2.5491    2.0575 H   0  0  0  0  0  0  0  0  0  0  0  0
   -0.4583    3.5388    4.2316 H   0  0  0  0  0  0  0  0  0  0  0  0
    2.8211    1.0683    1.4706 H   0  0  0  0  0  0  0  0  0  0  0  0
    5.8145    2.0406    4.4733 H   0  0  0  0  0  0  0  0  0  0  0  0
    3.0269    2.6627   -0.1595 H   0  0  0  0  0  0  0  0  0  0  0  0
    2.5290    5.0283   -0.7586 H   0  0  0  0  0  0  0  0  0  0  0  0
    4.1183    6.7827   -0.0017 H   0  0  0  0  0  0  0  0  0  0  0  0
    6.0630    6.1468    1.2997 H   0  0  0  0  0  0  0  0  0  0  0  0
    6.6107   -3.2068    2.6878 H   0  0  0  0  0  0  0  0  0  0  0  0
    6.0329   -1.2054    4.1173 H   0  0  0  0  0  0  0  0  0  0  0  0
    1.6216    3.8114    5.9369 H   0  0  0  0  0  0  0  0  0  0  0  0
  1  2  1  0  0  0  0
  1 28  1  0  0  0  0
  1 29  1  0  0  0  0
  1 30  1  0  0  0  0
  2  3  1  0  0  0  0
  3  4  1  0  0  0  0
  3  8  2  0  0  0  0
  4  5  2  0  0  0  0
  4 31  1  0  0  0  0
  5  6  1  0  0  0  0
  5 32  1  0  0  0  0
  6  7  2  0  0  0  0
  6 27  1  0  0  0  0
  7  8  1  0  0  0  0
  7  9  1  0  0  0  0
  8 33  1  0  0  0  0
  9 10  2  0  0  0  0
  9 25  1  0  0  0  0
 10 11  1  0  0  0  0
 10 34  1  0  0  0  0
 11 12  2  0  0  0  0
 11 24  1  0  0  0  0
 12 13  1  0  0  0  0
 12 19  1  0  0  0  0
 13 14  1  0  0  0  0
 13 18  2  0  0  0  0
 14 15  2  0  0  0  0
 14 35  1  0  0  0  0
 15 16  1  0  0  0  0
 15 36  1  0  0  0  0
 16 17  2  0  0  0  0
 16 37  1  0  0  0  0
 17 18  1  0  0  0  0
 17 38  1  0  0  0  0
 19 20  2  0  0  0  0
 20 21  1  0  0  0  0
 20 24  1  0  0  0  0
 21 22  1  0  0  0  0
 22 23  2  0  0  0  0
 22 39  1  0  0  0  0
 23 24  1  0  0  0  0
 23 40  1  0  0  0  0
 25 26  2  0  0  0  0
 25 27  1  0  0  0  0
 27 41  1  0  0  0  0
M  END
