REMARK  Name = 
REMARK  6 active torsions:
REMARK  status: ('A' for Active; 'I' for Inactive)
REMARK    1  A    between atoms: C_1  and  O_2
REMARK    2  A    between atoms: O_2  and  C_3
REMARK    3  A    between atoms: N_10  and  C_11
REMARK    4  A    between atoms: C_21  and  C_22
REMARK    5  A    between atoms: C_22  and  N_23
REMARK    6  A    between atoms: C_28  and  C_29
REMARK                            x       y       z     vdW  Elec       q    Type
REMARK                         _______ _______ _______ _____ _____    ______ ____
ROOT
ATOM      1  C   UNL     1       0.794  -1.478   1.880  0.00  0.00    +0.000 A 
ATOM      2  C   UNL     1      -0.144  -2.308   2.428  0.00  0.00    +0.000 A 
ATOM      3  C   UNL     1       0.224  -3.595   2.879  0.00  0.00    +0.000 A 
ATOM      4  N   UNL     1      -0.730  -4.434   3.399  0.00  0.00    +0.000 NA
ATOM      5  C   UNL     1      -0.319  -5.606   3.799  0.00  0.00    +0.000 A 
ATOM      6  N   UNL     1       0.964  -6.081   3.768  0.00  0.00    +0.000 NA
ATOM      7  C   UNL     1       1.888  -5.286   3.287  0.00  0.00    +0.000 A 
ATOM      8  N   UNL     1       3.283  -5.747   3.259  0.00  0.00    +0.000 N 
ATOM      9  C   UNL     1       1.578  -3.987   2.790  0.00  0.00    +0.000 A 
ATOM     10  C   UNL     1       2.532  -3.106   2.233  0.00  0.00    +0.000 A 
ATOM     11  C   UNL     1       2.140  -1.878   1.781  0.00  0.00    +0.000 A 
ATOM     12  H   UNL     1       4.014  -5.139   2.887  0.00  0.00    +0.000 HD
ENDROOT
BRANCH   8  13
ATOM     13  C   UNL     1       3.626  -7.083   3.766  0.00  0.00    +0.000 A 
ATOM     14  C   UNL     1       4.414  -7.291   4.880  0.00  0.00    +0.000 A 
ATOM     15  C   UNL     1       4.613  -8.568   5.390  0.00  0.00    +0.000 A 
ATOM     16  C   UNL     1       4.002  -9.650   4.760  0.00  0.00    +0.000 A 
ATOM     17  C   UNL     1       3.213  -9.440   3.645  0.00  0.00    +0.000 A 
ATOM     18 CL   UNL     1       2.416 -10.772   2.880  0.00  0.00    +0.000 Cl
ATOM     19  C   UNL     1       3.038  -8.164   3.161  0.00  0.00    +0.000 A 
ATOM     20  F   UNL     1       2.248  -7.967   2.085  0.00  0.00    +0.000 F 
ENDBRANCH   8  13
BRANCH   1  22
ATOM     21  C   UNL     1       0.924   0.043  -0.049  0.00  0.00    +0.000 C 
ATOM     22  O   UNL     1       0.451  -0.248   1.258  0.00  0.00    +0.000 OA
ENDBRANCH   1  22
BRANCH  11  23
ATOM     23  C   UNL     1       3.164  -0.937   1.168  0.00  0.00    +0.000 C 
BRANCH  23  24
ATOM     24  N   UNL     1       4.209  -0.637   2.158  0.00  0.00    +0.000 NA
ATOM     25  C   UNL     1       4.863  -1.898   2.554  0.00  0.00    +0.000 C 
ATOM     26  C   UNL     1       3.847  -2.805   3.212  0.00  0.00    +0.000 C 
ATOM     27  O   UNL     1       3.250  -2.171   4.343  0.00  0.00    +0.000 OA
ATOM     28  C   UNL     1       2.592  -0.971   3.936  0.00  0.00    +0.000 C 
ATOM     29  C   UNL     1       3.573   0.011   3.323  0.00  0.00    +0.000 C 
BRANCH  29  30
ATOM     30  C   UNL     1       4.627   0.405   4.344  0.00  0.00    +0.000 C 
ATOM     31  N   UNL     1       4.784   1.815   4.732  0.00  0.00    +0.000 N 
ATOM     32  O   UNL     1       5.373  -0.483   4.863  0.00  0.00    +0.000 OA
ATOM     33  H   UNL     1       5.492   2.079   5.417  0.00  0.00    +0.000 HD
ATOM     34  H   UNL     1       4.185   2.528   4.315  0.00  0.00    +0.000 HD
ENDBRANCH  29  30
ENDBRANCH  23  24
ENDBRANCH  11  23
TORSDOF 5
