REMARK  Name = 
REMARK  5 active torsions:
REMARK  status: ('A' for Active; 'I' for Inactive)
REMARK    1  A    between atoms: C_1  and  N_2
REMARK    2  A    between atoms: C_5  and  C_6
REMARK    3  A    between atoms: C_9  and  C_10
REMARK    4  A    between atoms: C_13  and  C_14
REMARK    5  A    between atoms: C_14  and  O_16
REMARK                            x       y       z     vdW  Elec       q    Type
REMARK                         _______ _______ _______ _____ _____    ______ ____
ROOT
ATOM      1  C   UNL     1       5.428  -3.120   3.455  0.00  0.00    +0.000 A 
ATOM      2  C   UNL     1       5.442  -2.666   4.764  0.00  0.00    +0.000 A 
ATOM      3  C   UNL     1       6.622  -2.997   5.472  0.00  0.00    +0.000 A 
ATOM      4  C   UNL     1       6.909  -2.260   6.676  0.00  0.00    +0.000 A 
ATOM      5  C   UNL     1       8.096  -2.556   7.436  0.00  0.00    +0.000 A 
ATOM      6  N   UNL     1       8.440  -4.431   5.982  0.00  0.00    +0.000 N 
ATOM      7  C   UNL     1       7.477  -3.934   5.107  0.00  0.00    +0.000 A 
ATOM      8  C   UNL     1       7.367  -4.390   3.822  0.00  0.00    +0.000 A 
ATOM      9  C   UNL     1       6.315  -4.010   3.025  0.00  0.00    +0.000 A 
ATOM     10 CL   UNL     1       6.139  -4.717   1.401  0.00  0.00    +0.000 Cl
ATOM     11  H   UNL     1       9.087  -5.155   5.671  0.00  0.00    +0.000 HD
ENDROOT
BRANCH   1  15
ATOM     12  C   UNL     1       2.425  -1.402   0.950  0.00  0.00    +0.000 A 
ATOM     13  C   UNL     1       3.267  -0.557   1.655  0.00  0.00    +0.000 A 
ATOM     14  C   UNL     1       4.355  -1.217   2.274  0.00  0.00    +0.000 A 
ATOM     15  C   UNL     1       4.412  -2.517   2.498  0.00  0.00    +0.000 A 
ATOM     16  C   UNL     1       3.510  -3.292   1.824  0.00  0.00    +0.000 A 
ATOM     17  C   UNL     1       2.497  -2.721   1.091  0.00  0.00    +0.000 A 
BRANCH  12  22
ATOM     18  C   UNL     1      -2.133  -0.015   0.076  0.00  0.00    +0.000 C 
ATOM     19  N   UNL     1      -0.729   0.003  -0.328  0.00  0.00    +0.000 NA
ATOM     20  C   UNL     1       0.009   1.170   0.180  0.00  0.00    +0.000 C 
ATOM     21  C   UNL     1       1.485   0.761  -0.023  0.00  0.00    +0.000 C 
ATOM     22  C   UNL     1       1.473  -0.782  -0.059  0.00  0.00    +0.000 C 
ATOM     23  C   UNL     1       0.016  -1.138   0.208  0.00  0.00    +0.000 C 
ENDBRANCH  12  22
ENDBRANCH   1  15
BRANCH   4  24
ATOM     24  C   UNL     1       5.959  -1.170   7.145  0.00  0.00    +0.000 C 
ATOM     25  O   UNL     1       6.213  -0.520   8.207  0.00  0.00    +0.000 OA
BRANCH  24  26
ATOM     26  O   UNL     1       4.788  -0.878   6.396  0.00  0.00    +0.000 OA
ATOM     27  H   UNL     1       4.164  -0.161   6.704  0.00  0.00    +0.000 HD
ENDBRANCH  24  26
ENDBRANCH   4  24
TORSDOF 4
