REMARK  Name = 
REMARK  3 active torsions:
REMARK  status: ('A' for Active; 'I' for Inactive)
REMARK    1  A    between atoms: C_1  and  C_2
REMARK    2  A    between atoms: C_2  and  N_3
REMARK    3  A    between atoms: C_4  and  C_5
REMARK                            x       y       z     vdW  Elec       q    Type
REMARK                         _______ _______ _______ _____ _____    ______ ____
ROOT
ATOM      1  N   UNL     1       0.901  -2.485   0.148  0.00  0.00    +0.000 N 
ATOM      2  C   UNL     1       1.582  -2.487   1.277  0.00  0.00    +0.000 A 
ATOM      3  N   UNL     1       1.680  -3.717   1.758  0.00  0.00    +0.000 NA
ATOM      4  C   UNL     1       1.048  -4.550   0.931  0.00  0.00    +0.000 A 
ATOM      5  C   UNL     1       0.813  -5.940   0.904  0.00  0.00    +0.000 A 
ATOM      6  N   UNL     1       0.110  -6.473  -0.119  0.00  0.00    +0.000 NA
ATOM      7  C   UNL     1      -0.372  -5.702  -1.129  0.00  0.00    +0.000 A 
ATOM      8  C   UNL     1      -0.182  -4.364  -1.153  0.00  0.00    +0.000 A 
ATOM      9  C   UNL     1       0.535  -3.748  -0.127  0.00  0.00    +0.000 A 
ENDROOT
BRANCH   2  10
ATOM     10  C   UNL     1       2.172  -1.250   1.934  0.00  0.00    +0.000 A 
ATOM     11  N   UNL     1       3.915  -0.909   2.096  0.00  0.00    +0.000 NA
ATOM     12  O   UNL     1       3.809   0.686   2.766  0.00  0.00    +0.000 OA
ATOM     13  N   UNL     1       2.468   0.902   2.843  0.00  0.00    +0.000 NA
ATOM     14  C   UNL     1       1.606  -0.077   2.416  0.00  0.00    +0.000 A 
ATOM     15  N   UNL     1       0.149   0.108   2.465  0.00  0.00    +0.000 N 
ATOM     16  H   UNL     1      -0.243   0.979   2.824  0.00  0.00    +0.000 HD
ATOM     17  H   UNL     1      -0.471  -0.635   2.142  0.00  0.00    +0.000 HD
ENDBRANCH   2  10
BRANCH   1  19
ATOM     18  C   UNL     1       0.918  -0.050  -0.028  0.00  0.00    +0.000 C 
ATOM     19  C   UNL     1       0.411  -1.346  -0.640  0.00  0.00    +0.000 C 
ENDBRANCH   1  19
TORSDOF 2
