REMARK  Name = 
REMARK  13 active torsions:
REMARK  status: ('A' for Active; 'I' for Inactive)
REMARK    1  A    between atoms: C_1  and  C_2
REMARK    2  A    between atoms: C_2  and  N_3
REMARK    3  A    between atoms: N_3  and  C_4
REMARK    4  A    between atoms: N_3  and  C_6
REMARK    5  A    between atoms: C_4  and  C_5
REMARK    6  A    between atoms: C_6  and  C_7
REMARK    7  A    between atoms: C_7  and  N_8
REMARK    8  A    between atoms: C_9  and  C_11
REMARK    9  A    between atoms: C_12  and  C_13
REMARK   10  A    between atoms: C_15  and  C_16
REMARK   11  A    between atoms: C_25  and  C_26
REMARK   12  A    between atoms: C_29  and  C_30
REMARK   13  A    between atoms: C_39  and  C_40
REMARK                            x       y       z     vdW  Elec       q    Type
REMARK                         _______ _______ _______ _____ _____    ______ ____
ROOT
ATOM      1  C   UNL     1       8.502  -1.026   1.503  0.00  0.00    +0.000 C 
ATOM      2  C   UNL     1       9.504  -1.388   2.323  0.00  0.00    +0.000 C 
ATOM      3  C   UNL     1       9.303  -1.458   3.802  0.00  0.00    +0.000 C 
ATOM      4  O   UNL     1       8.295  -1.167   4.448  0.00  0.00    +0.000 OA
ATOM      5  N   UNL     1      10.456  -1.929   4.338  0.00  0.00    +0.000 N 
ATOM      6  C   UNL     1      11.417  -2.165   3.349  0.00  0.00    +0.000 A 
ATOM      7  C   UNL     1      12.695  -2.636   3.540  0.00  0.00    +0.000 A 
ATOM      8  C   UNL     1      13.508  -2.754   2.419  0.00  0.00    +0.000 A 
ATOM      9  C   UNL     1      13.026  -2.374   1.174  0.00  0.00    +0.000 A 
ATOM     10  C   UNL     1      11.724  -1.923   1.003  0.00  0.00    +0.000 A 
ATOM     11  C   UNL     1      10.882  -1.830   2.104  0.00  0.00    +0.000 A 
ATOM     12  H   UNL     1      10.604  -2.091   5.334  0.00  0.00    +0.000 HD
ENDROOT
BRANCH   1  17
ATOM     13  C   UNL     1       4.966  -0.447   2.568  0.00  0.00    +0.000 A 
ATOM     14  C   UNL     1       5.620   0.558   3.236  0.00  0.00    +0.000 A 
ATOM     15  C   UNL     1       5.114   1.605   4.168  0.00  0.00    +0.000 C 
ATOM     16  N   UNL     1       6.942   0.468   2.917  0.00  0.00    +0.000 N 
ATOM     17  C   UNL     1       7.161  -0.593   2.071  0.00  0.00    +0.000 A 
ATOM     18  C   UNL     1       5.947  -1.191   1.833  0.00  0.00    +0.000 A 
ATOM     19  C   UNL     1       5.677  -2.373   0.937  0.00  0.00    +0.000 C 
ATOM     20  H   UNL     1       7.667   1.099   3.258  0.00  0.00    +0.000 HD
BRANCH  13  22
ATOM     21  N   UNL     1       2.516   0.386   2.467  0.00  0.00    +0.000 N 
ATOM     22  C   UNL     1       3.472  -0.723   2.601  0.00  0.00    +0.000 C 
ATOM     23  O   UNL     1       3.048  -1.913   2.745  0.00  0.00    +0.000 OA
ATOM     24  H   UNL     1       1.514   0.201   2.490  0.00  0.00    +0.000 HD
BRANCH  21  25
ATOM     25  C   UNL     1       3.006   1.762   2.301  0.00  0.00    +0.000 C 
BRANCH  25  26
ATOM     26  C   UNL     1       2.500   2.325   0.983  0.00  0.00    +0.000 C 
BRANCH  26  27
ATOM     27  N   UNL     1       1.030   2.325   0.983  0.00  0.00    +0.000 NA
BRANCH  27  29
ATOM     28  C   UNL     1       1.046   0.088   0.003  0.00  0.00    +0.000 C 
ATOM     29  C   UNL     1       0.540   0.949   1.149  0.00  0.00    +0.000 C 
ENDBRANCH  27  29
BRANCH  27  30
ATOM     30  C   UNL     1       0.540   3.156   2.091  0.00  0.00    +0.000 C 
ATOM     31  C   UNL     1       1.046   2.594   3.409  0.00  0.00    +0.000 C 
ENDBRANCH  27  30
ENDBRANCH  26  27
ENDBRANCH  25  26
ENDBRANCH  21  25
ENDBRANCH  13  22
ENDBRANCH   1  17
BRANCH  10  32
ATOM     32  C   UNL     1      11.223  -1.535  -0.378  0.00  0.00    +0.000 A 
ATOM     33  C   UNL     1      11.155  -2.519  -1.350  0.00  0.00    +0.000 A 
ATOM     34  C   UNL     1      10.879  -2.026  -2.647  0.00  0.00    +0.000 A 
ATOM     35  C   UNL     1      10.375  -0.833  -2.904  0.00  0.00    +0.000 A 
ATOM     36  C   UNL     1      10.409   0.074  -1.881  0.00  0.00    +0.000 A 
ATOM     37  C   UNL     1      10.793  -0.301  -0.616  0.00  0.00    +0.000 A 
BRANCH  35  38
ATOM     38  C   UNL     1       9.787  -0.487  -4.262  0.00  0.00    +0.000 A 
ATOM     39  C   UNL     1       8.675  -1.187  -4.699  0.00  0.00    +0.000 A 
ATOM     40  C   UNL     1       8.346  -0.952  -6.055  0.00  0.00    +0.000 A 
ATOM     41  C   UNL     1       8.781   0.074  -6.764  0.00  0.00    +0.000 A 
ATOM     42  C   UNL     1       9.839   0.767  -6.245  0.00  0.00    +0.000 A 
ATOM     43  C   UNL     1      10.302   0.506  -4.978  0.00  0.00    +0.000 A 
ENDBRANCH  35  38
ENDBRANCH  10  32
TORSDOF 9
