
 OpenBabel03132514253D

 39 42  0  0  0  0  0  0  0  0999 V2000
    1.0786    0.0415   -0.0459 O   0  0  0  0  0  0  0  0  0  0  0  0
    2.3495    0.0415   -0.0459 C   0  0  0  0  0  0  0  0  0  0  0  0
    3.0595   -0.3166   -1.2223 O   0  0  0  0  0  0  0  0  0  0  0  0
    3.1095    0.4248    1.2134 C   0  0  0  0  0  0  0  0  0  0  0  0
    4.0941    1.2732    1.2695 N   0  0  0  0  0  0  0  0  0  0  0  0
    4.5146    1.4375    2.5927 N   0  0  0  0  0  0  0  0  0  0  0  0
    3.7412    0.6394    3.4107 C   0  0  0  0  0  0  0  0  0  0  0  0
    3.7168    0.4094    4.7815 C   0  0  0  0  0  0  0  0  0  0  0  0
    2.7973   -0.4649    5.3161 C   0  0  0  0  0  0  0  0  0  0  0  0
    2.7624   -0.7440    7.0737 Cl  0  0  0  0  0  0  0  0  0  0  0  0
    1.8929   -1.1338    4.4910 C   0  0  0  0  0  0  0  0  0  0  0  0
    0.8930   -2.1057    5.0960 C   0  0  0  0  0  0  0  0  0  0  0  0
   -0.0274   -1.6037    6.0579 C   0  0  0  0  0  0  0  0  0  0  0  0
   -0.7835   -2.5057    6.8243 C   0  0  0  0  0  0  0  0  0  0  0  0
   -0.8496   -3.7576    6.4781 C   0  0  0  0  0  0  0  0  0  0  0  0
   -1.6589   -4.7348    7.3151 C   0  0  0  0  0  0  0  0  0  0  0  0
   -0.7558   -5.7223    7.7616 O   0  0  0  0  0  0  0  0  0  0  0  0
   -3.0152   -5.3436    6.9176 C   0  0  0  0  0  0  0  0  0  0  0  0
   -3.4935   -5.2078    8.3735 C   0  0  0  0  0  0  0  0  0  0  0  0
   -2.3759   -4.1822    8.5993 C   0  0  0  0  0  0  0  0  0  0  0  0
   -0.1758   -4.2067    5.3345 C   0  0  0  0  0  0  0  0  0  0  0  0
    0.8168   -3.3894    4.7410 C   0  0  0  0  0  0  0  0  0  0  0  0
    1.9017   -0.9171    3.1274 C   0  0  0  0  0  0  0  0  0  0  0  0
    2.8280   -0.0274    2.5750 C   0  0  0  0  0  0  0  0  0  0  0  0
    4.0595   -0.3166   -1.2223 H   0  0  0  0  0  0  0  0  0  0  0  0
    5.2704    2.0482    2.9030 H   0  0  0  0  0  0  0  0  0  0  0  0
    4.4123    0.9117    5.4209 H   0  0  0  0  0  0  0  0  0  0  0  0
   -0.1424   -0.5489    6.1961 H   0  0  0  0  0  0  0  0  0  0  0  0
   -1.3053   -2.1628    7.6932 H   0  0  0  0  0  0  0  0  0  0  0  0
   -1.2443   -6.3926    8.3203 H   0  0  0  0  0  0  0  0  0  0  0  0
   -3.5861   -4.9239    6.1158 H   0  0  0  0  0  0  0  0  0  0  0  0
   -2.9565   -6.3533    6.5682 H   0  0  0  0  0  0  0  0  0  0  0  0
   -3.5972   -6.0645    9.0061 H   0  0  0  0  0  0  0  0  0  0  0  0
   -4.4831   -4.8152    8.4798 H   0  0  0  0  0  0  0  0  0  0  0  0
   -1.8625   -4.1212    9.5361 H   0  0  0  0  0  0  0  0  0  0  0  0
   -2.6907   -3.1622    8.5251 H   0  0  0  0  0  0  0  0  0  0  0  0
   -0.4099   -5.1616    4.9122 H   0  0  0  0  0  0  0  0  0  0  0  0
    1.4948   -3.7950    4.0194 H   0  0  0  0  0  0  0  0  0  0  0  0
    1.2036   -1.4271    2.4970 H   0  0  0  0  0  0  0  0  0  0  0  0
  1  2  2  0  0  0  0
  2  3  1  0  0  0  0
  2  4  1  0  0  0  0
  3 25  1  0  0  0  0
  4  5  2  0  0  0  0
  4 24  1  0  0  0  0
  5  6  1  0  0  0  0
  6  7  1  0  0  0  0
  6 26  1  0  0  0  0
  7  8  1  0  0  0  0
  7 24  2  0  0  0  0
  8  9  2  0  0  0  0
  8 27  1  0  0  0  0
  9 10  1  0  0  0  0
  9 11  1  0  0  0  0
 11 12  1  0  0  0  0
 11 23  2  0  0  0  0
 12 13  1  0  0  0  0
 12 22  2  0  0  0  0
 13 14  2  0  0  0  0
 13 28  1  0  0  0  0
 14 15  1  0  0  0  0
 14 29  1  0  0  0  0
 15 16  1  0  0  0  0
 15 21  2  0  0  0  0
 16 17  1  0  0  0  0
 16 18  1  0  0  0  0
 16 20  1  0  0  0  0
 17 30  1  0  0  0  0
 18 19  1  0  0  0  0
 18 31  1  0  0  0  0
 18 32  1  0  0  0  0
 19 20  1  0  0  0  0
 19 33  1  0  0  0  0
 19 34  1  0  0  0  0
 20 35  1  0  0  0  0
 20 36  1  0  0  0  0
 21 22  1  0  0  0  0
 21 37  1  0  0  0  0
 22 38  1  0  0  0  0
 23 24  1  0  0  0  0
 23 39  1  0  0  0  0
M  END
