REMARK  Name = 
REMARK  3 active torsions:
REMARK  status: ('A' for Active; 'I' for Inactive)
REMARK    1  A    between atoms: C_1  and  O_2
REMARK    2  A    between atoms: O_2  and  C_3
REMARK    3  A    between atoms: C_8  and  N_9
REMARK                            x       y       z     vdW  Elec       q    Type
REMARK                         _______ _______ _______ _____ _____    ______ ____
ROOT
ATOM      1  N   UNL     1       3.211  -1.823  -0.402  0.00  0.00    +0.000 N 
ATOM      2  C   UNL     1       4.152  -1.246  -1.370  0.00  0.00    +0.000 C 
ATOM      3  C   UNL     1       4.159   0.269  -1.303  0.00  0.00    +0.000 C 
ATOM      4  N   UNL     1       4.536   0.715   0.044  0.00  0.00    +0.000 N 
ATOM      5  C   UNL     1       5.668   1.594   0.369  0.00  0.00    +0.000 A 
ATOM      6  N   UNL     1       6.644   1.144   1.188  0.00  0.00    +0.000 NA
ATOM      7  C   UNL     1       7.711   1.919   1.515  0.00  0.00    +0.000 A 
ATOM      8  N   UNL     1       7.855   3.172   1.029  0.00  0.00    +0.000 NA
ATOM      9  C   UNL     1       6.884   3.700   0.176  0.00  0.00    +0.000 A 
ATOM     10  N   UNL     1       6.716   4.869  -0.462  0.00  0.00    +0.000 NA
ATOM     11  N   UNL     1       5.592   4.812  -1.145  0.00  0.00    +0.000 N 
ATOM     12  C   UNL     1       5.006   3.636  -0.978  0.00  0.00    +0.000 A 
ATOM     13 BR   UNL     1       3.312   3.077  -1.790  0.00  0.00    +0.000 Br
ATOM     14  C   UNL     1       5.760   2.896  -0.166  0.00  0.00    +0.000 A 
ATOM     15  C   UNL     1       3.595   0.139   1.012  0.00  0.00    +0.000 C 
ATOM     16  C   UNL     1       3.588  -1.377   0.945  0.00  0.00    +0.000 C 
ATOM     17  H   UNL     1       5.224   5.568  -1.723  0.00  0.00    +0.000 HD
ENDROOT
BRANCH   1  23
ATOM     18  C   UNL     1       0.907  -2.519  -0.147  0.00  0.00    +0.000 A 
ATOM     19  C   UNL     1      -0.166  -3.347  -0.431  0.00  0.00    +0.000 A 
ATOM     20  C   UNL     1       0.207  -4.614  -0.940  0.00  0.00    +0.000 A 
ATOM     21  C   UNL     1       1.392  -4.897  -1.449  0.00  0.00    +0.000 A 
ATOM     22  C   UNL     1       2.395  -4.005  -1.189  0.00  0.00    +0.000 A 
ATOM     23  C   UNL     1       2.130  -2.803  -0.579  0.00  0.00    +0.000 A 
BRANCH  18  25
ATOM     24  C   UNL     1       1.038  -0.071   0.059  0.00  0.00    +0.000 C 
ATOM     25  O   UNL     1       0.564  -1.322   0.536  0.00  0.00    +0.000 OA
ENDBRANCH  18  25
ENDBRANCH   1  23
TORSDOF 2
