REMARK  Name = 
REMARK  8 active torsions:
REMARK  status: ('A' for Active; 'I' for Inactive)
REMARK    1  A    between atoms: C_1  and  C_2
REMARK    2  A    between atoms: C_9  and  C_10
REMARK    3  A    between atoms: C_11  and  C_12
REMARK    4  A    between atoms: C_17  and  N_18
REMARK    5  A    between atoms: N_18  and  C_19
REMARK    6  A    between atoms: C_22  and  O_23
REMARK    7  A    between atoms: O_23  and  C_24
REMARK    8  A    between atoms: C_24  and  C_25
REMARK                            x       y       z     vdW  Elec       q    Type
REMARK                         _______ _______ _______ _____ _____    ______ ____
ROOT
ATOM      1  C   UNL     1       7.580  -1.171  -1.534  0.00  0.00    +0.000 A 
ATOM      2  C   UNL     1       7.742   0.199  -1.588  0.00  0.00    +0.000 A 
ATOM      3  N   UNL     1       8.920   0.731  -1.876  0.00  0.00    +0.000 NA
ATOM      4  C   UNL     1       9.980  -0.022  -2.115  0.00  0.00    +0.000 A 
ATOM      5  N   UNL     1       9.891  -1.401  -2.078  0.00  0.00    +0.000 NA
ATOM      6  C   UNL     1       8.671  -1.991  -1.786  0.00  0.00    +0.000 A 
ENDROOT
BRANCH   1   8
ATOM      7  C   UNL     1       5.051  -2.270  -0.930  0.00  0.00    +0.000 C 
ATOM      8  C   UNL     1       6.219  -1.762  -1.209  0.00  0.00    +0.000 C 
BRANCH   7  17
ATOM      9  C   UNL     1       1.023   0.082  -0.053  0.00  0.00    +0.000 C 
ATOM     10  C   UNL     1       0.516  -0.531   1.243  0.00  0.00    +0.000 C 
ATOM     11  O   UNL     1      -0.214   0.153   2.026  0.00  0.00    +0.000 OA
ATOM     12  N   UNL     1       0.871  -1.915   1.589  0.00  0.00    +0.000 N 
ATOM     13  C   UNL     1       1.716  -2.706   0.683  0.00  0.00    +0.000 A 
ATOM     14  C   UNL     1       1.501  -4.053   0.417  0.00  0.00    +0.000 A 
ATOM     15  C   UNL     1       2.119  -4.574  -0.742  0.00  0.00    +0.000 A 
ATOM     16  C   UNL     1       3.373  -4.056  -1.060  0.00  0.00    +0.000 A 
ATOM     17  C   UNL     1       3.689  -2.862  -0.604  0.00  0.00    +0.000 A 
ATOM     18  N   UNL     1       2.786  -2.131   0.176  0.00  0.00    +0.000 NA
ATOM     19  H   UNL     1       0.531  -2.326   2.459  0.00  0.00    +0.000 HD
ENDBRANCH   7  17
ENDBRANCH   1   8
BRANCH   6  20
ATOM     20  N   UNL     1       8.535  -3.454  -1.743  0.00  0.00    +0.000 N 
ATOM     21  H   UNL     1       7.632  -3.877  -1.526  0.00  0.00    +0.000 HD
BRANCH  20  22
ATOM     22  C   UNL     1       9.701  -4.309  -2.012  0.00  0.00    +0.000 A 
ATOM     23  C   UNL     1      10.795  -4.234  -1.252  0.00  0.00    +0.000 A 
ATOM     24  C   UNL     1      11.899  -5.079  -1.554  0.00  0.00    +0.000 A 
ATOM     25  C   UNL     1      11.942  -5.741  -2.792  0.00  0.00    +0.000 A 
ATOM     26  C   UNL     1      10.874  -5.806  -3.532  0.00  0.00    +0.000 A 
ATOM     27 CL   UNL     1      10.933  -6.634  -5.107  0.00  0.00    +0.000 Cl
ATOM     28  C   UNL     1       9.678  -5.224  -3.092  0.00  0.00    +0.000 A 
BRANCH  25  29
ATOM     29  O   UNL     1      13.150  -6.340  -3.236  0.00  0.00    +0.000 OA
BRANCH  29  30
ATOM     30  C   UNL     1      14.316  -6.270  -2.428  0.00  0.00    +0.000 C 
BRANCH  30  31
ATOM     31  C   UNL     1      14.689  -4.814  -2.203  0.00  0.00    +0.000 A 
ATOM     32  C   UNL     1      13.757  -3.867  -2.326  0.00  0.00    +0.000 A 
ATOM     33  C   UNL     1      14.124  -2.510  -2.105  0.00  0.00    +0.000 A 
ATOM     34  C   UNL     1      15.484  -2.163  -2.061  0.00  0.00    +0.000 A 
ATOM     35  C   UNL     1      16.389  -3.089  -1.947  0.00  0.00    +0.000 A 
ATOM     36  F   UNL     1      17.677  -2.759  -1.916  0.00  0.00    +0.000 F 
ATOM     37  C   UNL     1      16.009  -4.435  -1.858  0.00  0.00    +0.000 A 
ENDBRANCH  30  31
ENDBRANCH  29  30
ENDBRANCH  25  29
ENDBRANCH  20  22
ENDBRANCH   6  20
TORSDOF 7
