REMARK  Name = 
REMARK  11 active torsions:
REMARK  status: ('A' for Active; 'I' for Inactive)
REMARK    1  A    between atoms: C_1  and  N_2
REMARK    2  A    between atoms: N_2  and  C_3
REMARK    3  A    between atoms: N_2  and  C_4
REMARK    4  A    between atoms: C_4  and  C_5
REMARK    5  A    between atoms: C_5  and  O_6
REMARK    6  A    between atoms: O_6  and  C_7
REMARK    7  A    between atoms: C_10  and  C_11
REMARK    8  A    between atoms: C_14  and  C_15
REMARK    9  A    between atoms: C_19  and  O_20
REMARK   10  A    between atoms: O_20  and  C_21
REMARK   11  A    between atoms: C_25  and  O_26
REMARK                            x       y       z     vdW  Elec       q    Type
REMARK                         _______ _______ _______ _____ _____    ______ ____
ROOT
ATOM      1  C   UNL     1       0.027  -3.387   7.557  0.00  0.00    +0.000 A 
ATOM      2  N   UNL     1      -1.047  -4.251   7.640  0.00  0.00    +0.000 NA
ATOM      3  C   UNL     1      -1.148  -5.126   8.725  0.00  0.00    +0.000 A 
ATOM      4  N   UNL     1      -2.122  -6.143   9.119  0.00  0.00    +0.000 NA
ATOM      5  C   UNL     1      -1.721  -6.669  10.239  0.00  0.00    +0.000 A 
ATOM      6  N   UNL     1      -0.522  -6.077  10.648  0.00  0.00    +0.000 N 
ATOM      7  C   UNL     1      -0.156  -5.121   9.722  0.00  0.00    +0.000 A 
ATOM      8  C   UNL     1       0.918  -4.245   9.621  0.00  0.00    +0.000 A 
ATOM      9  C   UNL     1       1.011  -3.390   8.545  0.00  0.00    +0.000 A 
ATOM     10 CL   UNL     1       2.397  -2.281   8.415  0.00  0.00    +0.000 Cl
ATOM     11  H   UNL     1      -0.002  -6.313  11.493  0.00  0.00    +0.000 HD
ENDROOT
BRANCH   1  15
ATOM     12  C   UNL     1       0.340  -1.115   3.953  0.00  0.00    +0.000 A 
ATOM     13  C   UNL     1      -0.786  -0.956   4.744  0.00  0.00    +0.000 A 
ATOM     14  C   UNL     1      -0.691  -1.581   6.010  0.00  0.00    +0.000 A 
ATOM     15  C   UNL     1       0.184  -2.522   6.317  0.00  0.00    +0.000 A 
ATOM     16  C   UNL     1       1.237  -2.676   5.460  0.00  0.00    +0.000 A 
ATOM     17  C   UNL     1       1.280  -2.001   4.263  0.00  0.00    +0.000 A 
BRANCH  12  21
ATOM     18  C   UNL     1       0.621   1.577   0.650  0.00  0.00    +0.000 A 
ATOM     19  C   UNL     1       0.372   2.095   1.911  0.00  0.00    +0.000 A 
ATOM     20  C   UNL     1       0.517   1.153   2.956  0.00  0.00    +0.000 A 
ATOM     21  C   UNL     1       0.523  -0.157   2.788  0.00  0.00    +0.000 A 
ATOM     22  C   UNL     1       0.705  -0.605   1.509  0.00  0.00    +0.000 A 
ATOM     23  C   UNL     1       0.707   0.268   0.448  0.00  0.00    +0.000 A 
BRANCH  18  24
ATOM     24  O   UNL     1       0.964   2.457  -0.411  0.00  0.00    +0.000 OA
BRANCH  24  25
ATOM     25  C   UNL     1       0.490   2.203  -1.725  0.00  0.00    +0.000 C 
BRANCH  25  26
ATOM     26  C   UNL     1       0.997   0.848  -2.193  0.00  0.00    +0.000 C 
BRANCH  26  28
ATOM     27  C   UNL     1       0.997   0.065   0.076  0.00  0.00    +0.000 C 
ATOM     28  N   UNL     1       0.507  -0.199  -1.284  0.00  0.00    +0.000 NA
ATOM     29  C   UNL     1      -0.963  -0.199  -1.284  0.00  0.00    +0.000 C 
ENDBRANCH  26  28
ENDBRANCH  25  26
ENDBRANCH  24  25
ENDBRANCH  18  24
ENDBRANCH  12  21
ENDBRANCH   1  15
BRANCH   5  30
ATOM     30  O   UNL     1      -2.401  -7.697  10.944  0.00  0.00    +0.000 OA
BRANCH  30  31
ATOM     31  C   UNL     1      -3.616  -8.225  10.432  0.00  0.00    +0.000 C 
ATOM     32  C   UNL     1      -3.385  -8.752   9.219  0.00  0.00    +0.000 C 
ATOM     33  O   UNL     1      -3.614  -7.743   8.195  0.00  0.00    +0.000 OA
ATOM     34  C   UNL     1      -4.566  -6.701   8.813  0.00  0.00    +0.000 C 
ATOM     35  C   UNL     1      -5.950  -6.881   8.227  0.00  0.00    +0.000 C 
ATOM     36  C   UNL     1      -6.556  -7.873   8.935  0.00  0.00    +0.000 C 
ATOM     37  O   UNL     1      -6.077  -7.865  10.309  0.00  0.00    +0.000 OA
ATOM     38  C   UNL     1      -4.700  -7.176  10.287  0.00  0.00    +0.000 C 
BRANCH  35  39
ATOM     39  O   UNL     1      -5.878  -7.214   6.848  0.00  0.00    +0.000 OA
ATOM     40  H   UNL     1      -5.360  -8.062   6.737  0.00  0.00    +0.000 HD
ENDBRANCH  35  39
ENDBRANCH  30  31
ENDBRANCH   5  30
TORSDOF 9
