
 OpenBabel03132512093D

 55 56  0  0  0  0  0  0  0  0999 V2000
    0.9504   -0.0836   -0.0235 C   0  0  0  0  0  0  0  0  0  0  0  0
    0.4770    0.7991   -1.0301 O   0  0  0  0  0  0  0  0  0  0  0  0
    0.8201    2.1763   -0.9853 C   0  0  0  0  0  0  0  0  0  0  0  0
   -0.1796    3.1105   -1.2008 C   0  0  0  0  0  0  0  0  0  0  0  0
    0.2999    4.4249   -1.4122 C   0  0  0  0  0  0  0  0  0  0  0  0
   -0.8255    5.6190   -2.1762 S   0  0  0  0  0  0  0  0  0  0  0  0
   -1.3160    5.0237   -3.8136 C   0  0  0  0  0  0  0  0  0  0  0  0
   -2.0689    5.7818   -1.2989 O   0  0  0  0  0  0  0  0  0  0  0  0
   -0.1187    6.9694   -2.3150 O   0  0  0  0  0  0  0  0  0  0  0  0
    1.5114    4.8409   -1.0909 C   0  0  0  0  0  0  0  0  0  0  0  0
    1.8359    6.2218   -1.0273 O   0  0  0  0  0  0  0  0  0  0  0  0
    3.1512    6.6267   -0.6776 C   0  0  0  0  0  0  0  0  0  0  0  0
    2.4364    3.8704   -0.8227 C   0  0  0  0  0  0  0  0  0  0  0  0
    2.0683    2.5499   -0.7292 C   0  0  0  0  0  0  0  0  0  0  0  0
    3.0994    1.5072   -0.3290 C   0  0  0  0  0  0  0  0  0  0  0  0
    4.2361    1.5053   -1.3381 C   0  0  0  0  0  0  0  0  0  0  0  0
    5.4225    1.7587   -0.9594 O   0  0  0  0  0  0  0  0  0  0  0  0
    3.9632    1.2105   -2.7522 N   0  0  0  0  0  0  0  0  0  0  0  0
    2.5909    0.9174   -3.1903 C   0  0  0  0  0  0  0  0  0  0  0  0
    2.3450   -0.1363   -4.0476 C   0  0  0  0  0  0  0  0  0  0  0  0
    1.1140   -0.4056   -4.4531 C   0  0  0  0  0  0  0  0  0  0  0  0
    0.8916   -1.5315   -5.3716 N   0  0  0  0  0  0  0  0  0  0  0  0
    0.0793    0.3139   -4.0519 C   0  0  0  0  0  0  0  0  0  0  0  0
   -1.3159   -0.0397   -4.5404 C   0  0  0  0  0  0  0  0  0  0  0  0
   -2.4735   -0.3330   -4.9456 N   0  0  0  0  0  0  0  0  0  0  0  0
    0.2518    1.3830   -3.1942 C   0  0  0  0  0  0  0  0  0  0  0  0
   -0.8644    2.1506   -2.7683 O   0  0  0  0  0  0  0  0  0  0  0  0
   -0.6767    3.2476   -1.8864 C   0  0  0  0  0  0  0  0  0  0  0  0
   -0.0538    2.7551   -0.5904 C   0  0  0  0  0  0  0  0  0  0  0  0
    0.2443    4.2678   -2.5356 C   0  0  0  0  0  0  0  0  0  0  0  0
    1.5294    1.6971   -2.7541 N   0  0  0  0  0  0  0  0  0  0  0  0
    0.5937   -1.0730   -0.2203 H   0  0  0  0  0  0  0  0  0  0  0  0
    0.5937    0.2407    0.9318 H   0  0  0  0  0  0  0  0  0  0  0  0
    2.0204   -0.0836   -0.0235 H   0  0  0  0  0  0  0  0  0  0  0  0
   -1.2201    2.8609   -1.2069 H   0  0  0  0  0  0  0  0  0  0  0  0
   -1.8101    4.0796   -3.7166 H   0  0  0  0  0  0  0  0  0  0  0  0
   -1.9812    5.7296   -4.2653 H   0  0  0  0  0  0  0  0  0  0  0  0
   -0.4467    4.9099   -4.4269 H   0  0  0  0  0  0  0  0  0  0  0  0
    3.3895    6.2599    0.2990 H   0  0  0  0  0  0  0  0  0  0  0  0
    3.8470    6.2300   -1.3871 H   0  0  0  0  0  0  0  0  0  0  0  0
    3.2083    7.6951   -0.6810 H   0  0  0  0  0  0  0  0  0  0  0  0
    3.4616    4.1431   -0.6836 H   0  0  0  0  0  0  0  0  0  0  0  0
    3.4845    1.7406    0.6416 H   0  0  0  0  0  0  0  0  0  0  0  0
    2.6399    0.5411   -0.3076 H   0  0  0  0  0  0  0  0  0  0  0  0
    4.7260    1.2092   -3.4293 H   0  0  0  0  0  0  0  0  0  0  0  0
    3.1586   -0.7422   -4.3881 H   0  0  0  0  0  0  0  0  0  0  0  0
    1.6808   -2.0945   -5.6888 H   0  0  0  0  0  0  0  0  0  0  0  0
   -0.0519   -1.7498   -5.6918 H   0  0  0  0  0  0  0  0  0  0  0  0
   -1.6222    3.7029   -1.6773 H   0  0  0  0  0  0  0  0  0  0  0  0
    0.8917    2.2998   -0.7995 H   0  0  0  0  0  0  0  0  0  0  0  0
    0.0876    3.5817    0.0741 H   0  0  0  0  0  0  0  0  0  0  0  0
   -0.7021    2.0370   -0.1334 H   0  0  0  0  0  0  0  0  0  0  0  0
   -0.1943    4.6145   -3.4480 H   0  0  0  0  0  0  0  0  0  0  0  0
    0.3856    5.0944   -1.8711 H   0  0  0  0  0  0  0  0  0  0  0  0
    1.1897    3.8125   -2.7448 H   0  0  0  0  0  0  0  0  0  0  0  0
  1  2  1  0  0  0  0
  1 32  1  0  0  0  0
  1 33  1  0  0  0  0
  1 34  1  0  0  0  0
  2  3  1  0  0  0  0
  3  4  1  0  0  0  0
  3 14  2  0  0  0  0
  4  5  2  0  0  0  0
  4 35  1  0  0  0  0
  5  6  1  0  0  0  0
  5 10  1  0  0  0  0
  6  7  1  0  0  0  0
  6  8  2  0  0  0  0
  6  9  2  0  0  0  0
  7 36  1  0  0  0  0
  7 37  1  0  0  0  0
  7 38  1  0  0  0  0
 10 11  1  0  0  0  0
 10 13  2  0  0  0  0
 11 12  1  0  0  0  0
 12 39  1  0  0  0  0
 12 40  1  0  0  0  0
 12 41  1  0  0  0  0
 13 14  1  0  0  0  0
 13 42  1  0  0  0  0
 14 15  1  0  0  0  0
 15 16  1  0  0  0  0
 15 43  1  0  0  0  0
 15 44  1  0  0  0  0
 16 17  2  0  0  0  0
 16 18  1  0  0  0  0
 18 19  1  0  0  0  0
 18 45  1  0  0  0  0
 19 20  1  0  0  0  0
 19 31  2  0  0  0  0
 20 21  2  0  0  0  0
 20 46  1  0  0  0  0
 21 22  1  0  0  0  0
 21 23  1  0  0  0  0
 22 47  1  0  0  0  0
 22 48  1  0  0  0  0
 23 24  1  0  0  0  0
 23 26  2  0  0  0  0
 24 25  3  0  0  0  0
 26 27  1  0  0  0  0
 26 31  1  0  0  0  0
 27 28  1  0  0  0  0
 28 29  1  0  0  0  0
 28 30  1  0  0  0  0
 28 49  1  0  0  0  0
 29 50  1  0  0  0  0
 29 51  1  0  0  0  0
 29 52  1  0  0  0  0
 30 53  1  0  0  0  0
 30 54  1  0  0  0  0
 30 55  1  0  0  0  0
M  END
