
 OpenBabel03132512093D

 58 60  0  0  0  0  0  0  0  0999 V2000
    0.9289   -0.0017    0.0703 C   0  0  0  0  0  0  0  0  0  0  0  0
    0.4556   -1.1830   -0.5597 O   0  0  0  0  0  0  0  0  0  0  0  0
    0.7986   -1.4533   -1.9109 C   0  0  0  0  0  0  0  0  0  0  0  0
   -0.1435   -1.9472   -2.7696 C   0  0  0  0  0  0  0  0  0  0  0  0
    0.2033   -2.2558   -4.1040 C   0  0  0  0  0  0  0  0  0  0  0  0
   -0.7555   -2.7217   -4.9672 N   0  0  0  0  0  0  0  0  0  0  0  0
   -0.3642   -2.9888   -6.1828 C   0  0  0  0  0  0  0  0  0  0  0  0
    0.9039   -2.8679   -6.6832 N   0  0  0  0  0  0  0  0  0  0  0  0
    1.8337   -2.4370   -5.8652 C   0  0  0  0  0  0  0  0  0  0  0  0
    3.2148   -2.3163   -6.3539 N   0  0  0  0  0  0  0  0  0  0  0  0
    3.5373   -2.6764   -7.7422 C   0  0  0  0  0  0  0  0  0  0  0  0
    4.5147   -3.6061   -8.0319 C   0  0  0  0  0  0  0  0  0  0  0  0
    4.8811   -3.8778   -9.3437 C   0  0  0  0  0  0  0  0  0  0  0  0
    4.2445   -3.1947  -10.3787 C   0  0  0  0  0  0  0  0  0  0  0  0
    3.2649   -2.2644  -10.0868 C   0  0  0  0  0  0  0  0  0  0  0  0
    2.4388   -1.4416  -11.3653 Cl  0  0  0  0  0  0  0  0  0  0  0  0
    2.9268   -2.0142   -8.7761 C   0  0  0  0  0  0  0  0  0  0  0  0
    1.9544   -1.1203   -8.5032 F   0  0  0  0  0  0  0  0  0  0  0  0
    1.5436   -2.0827   -4.5168 C   0  0  0  0  0  0  0  0  0  0  0  0
    2.5029   -1.5842   -3.6062 C   0  0  0  0  0  0  0  0  0  0  0  0
    2.1302   -1.2703   -2.3304 C   0  0  0  0  0  0  0  0  0  0  0  0
    3.1597   -0.7197   -1.3570 C   0  0  0  0  0  0  0  0  0  0  0  0
    4.2423   -1.6987   -1.1830 N   0  0  0  0  0  0  0  0  0  0  0  0
    5.2379   -1.1662   -0.2416 C   0  0  0  0  0  0  0  0  0  0  0  0
    3.6884   -2.9529   -0.6529 C   0  0  0  0  0  0  0  0  0  0  0  0
    3.0254   -2.6868    0.6888 C   0  0  0  0  0  0  0  0  0  0  0  0
    1.9428   -1.7078    0.5148 N   0  0  0  0  0  0  0  0  0  0  0  0
    1.3017   -1.4506    1.8124 C   0  0  0  0  0  0  0  0  0  0  0  0
    2.4967   -0.4536   -0.0153 C   0  0  0  0  0  0  0  0  0  0  0  0
    2.6590   -3.5035   -1.6264 C   0  0  0  0  0  0  0  0  0  0  0  0
    2.8509   -4.8320   -2.2256 N   0  0  0  0  0  0  0  0  0  0  0  0
    1.6323   -2.8152   -1.9223 O   0  0  0  0  0  0  0  0  0  0  0  0
    0.5722    0.0322    1.0785 H   0  0  0  0  0  0  0  0  0  0  0  0
    0.5723    0.8545   -0.4632 H   0  0  0  0  0  0  0  0  0  0  0  0
    1.9989   -0.0017    0.0703 H   0  0  0  0  0  0  0  0  0  0  0  0
   -1.1466   -2.1006   -2.4301 H   0  0  0  0  0  0  0  0  0  0  0  0
   -1.1142   -3.3396   -6.8604 H   0  0  0  0  0  0  0  0  0  0  0  0
    3.9493   -1.9826   -5.7298 H   0  0  0  0  0  0  0  0  0  0  0  0
    4.9988   -4.1267   -7.2322 H   0  0  0  0  0  0  0  0  0  0  0  0
    5.6407   -4.6007   -9.5567 H   0  0  0  0  0  0  0  0  0  0  0  0
    4.5134   -3.3899  -11.3958 H   0  0  0  0  0  0  0  0  0  0  0  0
    3.5187   -1.4532   -3.9157 H   0  0  0  0  0  0  0  0  0  0  0  0
    3.5629    0.1933   -1.7428 H   0  0  0  0  0  0  0  0  0  0  0  0
    2.6930   -0.5324   -0.4125 H   0  0  0  0  0  0  0  0  0  0  0  0
    4.7712   -0.9789    0.7029 H   0  0  0  0  0  0  0  0  0  0  0  0
    6.0260   -1.8788   -0.1150 H   0  0  0  0  0  0  0  0  0  0  0  0
    5.6411   -0.2533   -0.6275 H   0  0  0  0  0  0  0  0  0  0  0  0
    4.4764   -3.6655   -0.5263 H   0  0  0  0  0  0  0  0  0  0  0  0
    2.6222   -3.5998    1.0746 H   0  0  0  0  0  0  0  0  0  0  0  0
    3.7501   -2.2993    1.3740 H   0  0  0  0  0  0  0  0  0  0  0  0
    2.0263   -1.0630    2.4976 H   0  0  0  0  0  0  0  0  0  0  0  0
    0.5136   -0.7380    1.6858 H   0  0  0  0  0  0  0  0  0  0  0  0
    0.8984   -2.3635    2.1982 H   0  0  0  0  0  0  0  0  0  0  0  0
    3.2214   -0.0661    0.6700 H   0  0  0  0  0  0  0  0  0  0  0  0
    2.9634   -0.6409   -0.9597 H   0  0  0  0  0  0  0  0  0  0  0  0
    1.7087    0.2590   -0.1419 H   0  0  0  0  0  0  0  0  0  0  0  0
    2.1601   -5.2015   -2.8788 H   0  0  0  0  0  0  0  0  0  0  0  0
    3.6748   -5.3844   -1.9881 H   0  0  0  0  0  0  0  0  0  0  0  0
  1  2  1  0  0  0  0
  1 33  1  0  0  0  0
  1 34  1  0  0  0  0
  1 35  1  0  0  0  0
  2  3  1  0  0  0  0
  3  4  1  0  0  0  0
  3 21  2  0  0  0  0
  4  5  2  0  0  0  0
  4 36  1  0  0  0  0
  5  6  1  0  0  0  0
  5 19  1  0  0  0  0
  6  7  2  0  0  0  0
  7  8  1  0  0  0  0
  7 37  1  0  0  0  0
  8  9  2  0  0  0  0
  9 10  1  0  0  0  0
  9 19  1  0  0  0  0
 10 11  1  0  0  0  0
 10 38  1  0  0  0  0
 11 12  1  0  0  0  0
 11 17  2  0  0  0  0
 12 13  2  0  0  0  0
 12 39  1  0  0  0  0
 13 14  1  0  0  0  0
 13 40  1  0  0  0  0
 14 15  2  0  0  0  0
 14 41  1  0  0  0  0
 15 16  1  0  0  0  0
 15 17  1  0  0  0  0
 17 18  1  0  0  0  0
 19 20  2  0  0  0  0
 20 21  1  0  0  0  0
 20 42  1  0  0  0  0
 21 22  1  0  0  0  0
 22 23  1  0  0  0  0
 22 43  1  0  0  0  0
 22 44  1  0  0  0  0
 23 24  1  0  0  0  0
 23 25  1  0  0  0  0
 24 45  1  0  0  0  0
 24 46  1  0  0  0  0
 24 47  1  0  0  0  0
 25 26  1  0  0  0  0
 25 30  1  0  0  0  0
 25 48  1  0  0  0  0
 26 27  1  0  0  0  0
 26 49  1  0  0  0  0
 26 50  1  0  0  0  0
 27 28  1  0  0  0  0
 27 29  1  0  0  0  0
 28 51  1  0  0  0  0
 28 52  1  0  0  0  0
 28 53  1  0  0  0  0
 29 54  1  0  0  0  0
 29 55  1  0  0  0  0
 29 56  1  0  0  0  0
 30 31  1  0  0  0  0
 30 32  2  0  0  0  0
 31 57  1  0  0  0  0
 31 58  1  0  0  0  0
M  END
