REMARK  Name = 
REMARK  7 active torsions:
REMARK  status: ('A' for Active; 'I' for Inactive)
REMARK    1  A    between atoms: C_1  and  C_2
REMARK    2  A    between atoms: C_2  and  N_3
REMARK    3  A    between atoms: C_2  and  C_26
REMARK    4  A    between atoms: C_4  and  C_6
REMARK    5  A    between atoms: C_12  and  C_13
REMARK    6  A    between atoms: N_15  and  C_16
REMARK    7  A    between atoms: C_30  and  C_31
REMARK                            x       y       z     vdW  Elec       q    Type
REMARK                         _______ _______ _______ _____ _____    ______ ____
ROOT
ATOM      1  C   UNL     1      -1.507  -3.070   1.139  0.00  0.00    +0.000 A 
ATOM      2  C   UNL     1      -2.457  -2.998   2.124  0.00  0.00    +0.000 A 
ATOM      3  N   UNL     1      -3.683  -2.832   1.558  0.00  0.00    +0.000 N 
ATOM      4  C   UNL     1      -3.585  -2.766   0.184  0.00  0.00    +0.000 A 
ATOM      5  N   UNL     1      -4.471  -2.605  -0.797  0.00  0.00    +0.000 NA
ATOM      6  C   UNL     1      -4.080  -2.570  -2.063  0.00  0.00    +0.000 A 
ATOM      7  C   UNL     1      -2.723  -2.721  -2.397  0.00  0.00    +0.000 A 
ATOM      8  N   UNL     1      -1.837  -2.878  -1.415  0.00  0.00    +0.000 NA
ATOM      9  C   UNL     1      -2.223  -2.909  -0.141  0.00  0.00    +0.000 A 
ATOM     10  H   UNL     1      -4.556  -2.764   2.079  0.00  0.00    +0.000 HD
ENDROOT
BRANCH   7  11
ATOM     11  C   UNL     1      -2.275  -2.706  -3.850  0.00  0.00    +0.000 A 
ATOM     12  C   UNL     1      -1.655  -3.686  -4.476  0.00  0.00    +0.000 A 
ATOM     13  N   UNL     1      -1.405  -3.349  -5.733  0.00  0.00    +0.000 N 
ATOM     14  C   UNL     1      -0.727  -4.192  -6.728  0.00  0.00    +0.000 C 
ATOM     15  C   UNL     1      -1.872  -2.119  -5.945  0.00  0.00    +0.000 A 
ATOM     16  C   UNL     1      -1.905  -1.242  -7.049  0.00  0.00    +0.000 A 
ATOM     17  C   UNL     1      -2.477  -0.026  -6.912  0.00  0.00    +0.000 A 
ATOM     18 CL   UNL     1      -2.525   1.074  -8.311  0.00  0.00    +0.000 Cl
ATOM     19  C   UNL     1      -3.016   0.378  -5.732  0.00  0.00    +0.000 A 
ATOM     20  C   UNL     1      -3.018  -0.421  -4.642  0.00  0.00    +0.000 A 
ATOM     21  C   UNL     1      -2.444  -1.692  -4.714  0.00  0.00    +0.000 A 
ENDBRANCH   7  11
BRANCH   1  23
ATOM     22  N   UNL     1       0.943  -2.450   0.572  0.00  0.00    +0.000 N 
ATOM     23  C   UNL     1      -0.013  -3.275   1.326  0.00  0.00    +0.000 C 
ATOM     24  O   UNL     1       0.411  -4.158   2.135  0.00  0.00    +0.000 OA
ATOM     25  H   UNL     1       1.946  -2.588   0.698  0.00  0.00    +0.000 HD
BRANCH  22  27
ATOM     26  C   UNL     1       0.959  -0.061   0.068  0.00  0.00    +0.000 C 
ATOM     27  C   UNL     1       0.453  -1.428  -0.364  0.00  0.00    +0.000 C 
BRANCH  27  28
ATOM     28  C   UNL     1      -1.067  -1.428  -0.364  0.00  0.00    +0.000 C 
ATOM     29  O   UNL     1      -1.703  -1.666  -1.439  0.00  0.00    +0.000 OA
ATOM     30  N   UNL     1      -1.802  -1.153   0.879  0.00  0.00    +0.000 N 
ATOM     31  C   UNL     1      -2.978  -1.779   1.650  0.00  0.00    +0.000 C 
ATOM     32  C   UNL     1      -3.192  -0.398   2.289  0.00  0.00    +0.000 C 
ATOM     33  C   UNL     1      -1.702  -0.126   2.022  0.00  0.00    +0.000 C 
BRANCH  32  34
ATOM     34  C   UNL     1      -3.802  -0.238   3.672  0.00  0.00    +0.000 C 
ATOM     35  N   UNL     1      -4.308  -0.106   4.819  0.00  0.00    +0.000 NA
ENDBRANCH  32  34
ENDBRANCH  27  28
ENDBRANCH  22  27
ENDBRANCH   1  23
TORSDOF 5
