
 OpenBabel03132512093D

 53 55  0  0  0  0  0  0  0  0999 V2000
    0.9995    0.0549   -0.0836 C   0  0  0  0  0  0  0  0  0  0  0  0
    0.5095   -1.2853   -0.4366 N   0  0  0  0  0  0  0  0  0  0  0  0
   -0.3356   -2.0310    0.5071 C   0  0  0  0  0  0  0  0  0  0  0  0
   -0.7593   -3.1897    0.2020 O   0  0  0  0  0  0  0  0  0  0  0  0
   -0.7028   -1.4163    1.8479 C   0  0  0  0  0  0  0  0  0  0  0  0
    0.5638   -1.1289    2.6374 C   0  0  0  0  0  0  0  0  0  0  0  0
   -1.4378   -0.1625    1.6273 N   0  0  0  0  0  0  0  0  0  0  0  0
   -1.7930    0.4320    2.9239 C   0  0  0  0  0  0  0  0  0  0  0  0
   -0.5927    0.7748    0.8735 C   0  0  0  0  0  0  0  0  0  0  0  0
    0.6740    1.0622    1.6630 C   0  0  0  0  0  0  0  0  0  0  0  0
    1.4560    0.0304    2.0978 C   0  0  0  0  0  0  0  0  0  0  0  0
    2.6183    0.2996    2.8558 C   0  0  0  0  0  0  0  0  0  0  0  0
    3.4953   -0.7057    3.3537 C   0  0  0  0  0  0  0  0  0  0  0  0
    3.2135   -2.1153    3.0464 N   0  0  0  0  0  0  0  0  0  0  0  0
    4.1052   -3.1699    3.5499 C   0  0  0  0  0  0  0  0  0  0  0  0
    4.8194   -4.0103    2.7209 C   0  0  0  0  0  0  0  0  0  0  0  0
    5.6891   -4.9613    3.2390 C   0  0  0  0  0  0  0  0  0  0  0  0
    5.8365   -5.0605    4.6216 C   0  0  0  0  0  0  0  0  0  0  0  0
    5.1210   -4.2171    5.4506 C   0  0  0  0  0  0  0  0  0  0  0  0
    5.3281   -4.3032    7.1663 Cl  0  0  0  0  0  0  0  0  0  0  0  0
    4.2637   -3.2876    4.9069 C   0  0  0  0  0  0  0  0  0  0  0  0
    3.5867   -2.4550    5.7239 F   0  0  0  0  0  0  0  0  0  0  0  0
    4.5471   -0.4098    4.0785 N   0  0  0  0  0  0  0  0  0  0  0  0
    4.7878    0.9152    4.3221 C   0  0  0  0  0  0  0  0  0  0  0  0
    4.0799    1.9293    3.9068 N   0  0  0  0  0  0  0  0  0  0  0  0
    2.9679    1.6346    3.1598 C   0  0  0  0  0  0  0  0  0  0  0  0
    2.1525    2.6801    2.6718 C   0  0  0  0  0  0  0  0  0  0  0  0
    1.0254    2.3946    1.9525 C   0  0  0  0  0  0  0  0  0  0  0  0
    0.1997    3.4541    1.4921 O   0  0  0  0  0  0  0  0  0  0  0  0
   -0.9728    3.1669    0.7443 C   0  0  0  0  0  0  0  0  0  0  0  0
    0.6428    0.3202    0.8897 H   0  0  0  0  0  0  0  0  0  0  0  0
    0.6428    0.7652   -0.8000 H   0  0  0  0  0  0  0  0  0  0  0  0
    2.0695    0.0549   -0.0836 H   0  0  0  0  0  0  0  0  0  0  0  0
    0.7559   -1.6978   -1.3363 H   0  0  0  0  0  0  0  0  0  0  0  0
   -1.3180   -2.0986    2.3966 H   0  0  0  0  0  0  0  0  0  0  0  0
    1.1790   -0.4466    2.0888 H   0  0  0  0  0  0  0  0  0  0  0  0
    0.3053   -0.6961    3.5813 H   0  0  0  0  0  0  0  0  0  0  0  0
    1.0988   -2.0415    2.7980 H   0  0  0  0  0  0  0  0  0  0  0  0
   -0.9013    0.6343    3.4797 H   0  0  0  0  0  0  0  0  0  0  0  0
   -2.3280    1.3446    2.7633 H   0  0  0  0  0  0  0  0  0  0  0  0
   -2.4081   -0.2503    3.4726 H   0  0  0  0  0  0  0  0  0  0  0  0
   -0.3342    0.3420   -0.0703 H   0  0  0  0  0  0  0  0  0  0  0  0
   -1.1277    1.6874    0.7129 H   0  0  0  0  0  0  0  0  0  0  0  0
    1.1894   -0.9794    1.8653 H   0  0  0  0  0  0  0  0  0  0  0  0
    2.3991   -2.3617    2.4837 H   0  0  0  0  0  0  0  0  0  0  0  0
    4.7012   -3.9281    1.6607 H   0  0  0  0  0  0  0  0  0  0  0  0
    6.2377   -5.6081    2.5867 H   0  0  0  0  0  0  0  0  0  0  0  0
    6.5013   -5.7871    5.0397 H   0  0  0  0  0  0  0  0  0  0  0  0
    5.6480    1.1437    4.9161 H   0  0  0  0  0  0  0  0  0  0  0  0
    2.4178    3.6984    2.8658 H   0  0  0  0  0  0  0  0  0  0  0  0
   -0.7065    2.6401   -0.1482 H   0  0  0  0  0  0  0  0  0  0  0  0
   -1.6316    2.5625    1.3321 H   0  0  0  0  0  0  0  0  0  0  0  0
   -1.4637    4.0817    0.4854 H   0  0  0  0  0  0  0  0  0  0  0  0
  1  2  1  0  0  0  0
  1 31  1  0  0  0  0
  1 32  1  0  0  0  0
  1 33  1  0  0  0  0
  2  3  1  0  0  0  0
  2 34  1  0  0  0  0
  3  4  2  0  0  0  0
  3  5  1  0  0  0  0
  5  6  1  0  0  0  0
  5  7  1  0  0  0  0
  5 35  1  0  0  0  0
  6 36  1  0  0  0  0
  6 37  1  0  0  0  0
  6 38  1  0  0  0  0
  7  8  1  0  0  0  0
  7  9  1  0  0  0  0
  8 39  1  0  0  0  0
  8 40  1  0  0  0  0
  8 41  1  0  0  0  0
  9 10  1  0  0  0  0
  9 42  1  0  0  0  0
  9 43  1  0  0  0  0
 10 11  1  0  0  0  0
 10 28  2  0  0  0  0
 11 12  2  0  0  0  0
 11 44  1  0  0  0  0
 12 13  1  0  0  0  0
 12 26  1  0  0  0  0
 13 14  1  0  0  0  0
 13 23  2  0  0  0  0
 14 15  1  0  0  0  0
 14 45  1  0  0  0  0
 15 16  1  0  0  0  0
 15 21  2  0  0  0  0
 16 17  2  0  0  0  0
 16 46  1  0  0  0  0
 17 18  1  0  0  0  0
 17 47  1  0  0  0  0
 18 19  2  0  0  0  0
 18 48  1  0  0  0  0
 19 20  1  0  0  0  0
 19 21  1  0  0  0  0
 21 22  1  0  0  0  0
 23 24  1  0  0  0  0
 24 25  2  0  0  0  0
 24 49  1  0  0  0  0
 25 26  1  0  0  0  0
 26 27  2  0  0  0  0
 27 28  1  0  0  0  0
 27 50  1  0  0  0  0
 28 29  1  0  0  0  0
 29 30  1  0  0  0  0
 30 51  1  0  0  0  0
 30 52  1  0  0  0  0
 30 53  1  0  0  0  0
M  END
