
 OpenBabel03132512093D

 27 29  0  0  0  0  0  0  0  0999 V2000
    0.9426    0.0432    0.0696 C   0  0  0  0  0  0  0  0  0  0  0  0
    0.4360   -1.1034   -0.7900 C   0  0  0  0  0  0  0  0  0  0  0  0
    0.9260   -2.3778   -0.2453 N   0  0  0  0  0  0  0  0  0  0  0  0
    1.7796   -2.5930    0.7348 C   0  0  0  0  0  0  0  0  0  0  0  0
    2.5537   -1.5067    1.4636 C   0  0  0  0  0  0  0  0  0  0  0  0
    4.3216   -1.2787    1.3940 N   0  0  0  0  0  0  0  0  0  0  0  0
    4.4328    0.1847    2.3171 O   0  0  0  0  0  0  0  0  0  0  0  0
    3.1381    0.4458    2.6427 N   0  0  0  0  0  0  0  0  0  0  0  0
    2.1537   -0.4066    2.2099 C   0  0  0  0  0  0  0  0  0  0  0  0
    0.7378   -0.1654    2.5228 N   0  0  0  0  0  0  0  0  0  0  0  0
    1.8688   -3.8888    0.9964 N   0  0  0  0  0  0  0  0  0  0  0  0
    1.0549   -4.5468    0.1722 C   0  0  0  0  0  0  0  0  0  0  0  0
    0.7221   -5.9030   -0.0282 C   0  0  0  0  0  0  0  0  0  0  0  0
   -0.1739   -6.2309   -0.9843 N   0  0  0  0  0  0  0  0  0  0  0  0
   -0.7597   -5.2852   -1.7650 C   0  0  0  0  0  0  0  0  0  0  0  0
   -0.4836   -3.9705   -1.6152 C   0  0  0  0  0  0  0  0  0  0  0  0
    0.4331   -3.5613   -0.6448 C   0  0  0  0  0  0  0  0  0  0  0  0
    0.5860   -0.0772    1.0712 H   0  0  0  0  0  0  0  0  0  0  0  0
    0.5860    0.9709   -0.3269 H   0  0  0  0  0  0  0  0  0  0  0  0
    2.0126    0.0432    0.0696 H   0  0  0  0  0  0  0  0  0  0  0  0
   -0.6340   -1.1034   -0.7900 H   0  0  0  0  0  0  0  0  0  0  0  0
    0.7926   -0.9830   -1.7916 H   0  0  0  0  0  0  0  0  0  0  0  0
    0.4688    0.6502    3.0730 H   0  0  0  0  0  0  0  0  0  0  0  0
    0.0242   -0.8138    2.1897 H   0  0  0  0  0  0  0  0  0  0  0  0
    1.1752   -6.6646    0.5714 H   0  0  0  0  0  0  0  0  0  0  0  0
   -1.4571   -5.5891   -2.5175 H   0  0  0  0  0  0  0  0  0  0  0  0
   -0.9658   -3.2461   -2.2378 H   0  0  0  0  0  0  0  0  0  0  0  0
  1  2  1  0  0  0  0
  1 18  1  0  0  0  0
  1 19  1  0  0  0  0
  1 20  1  0  0  0  0
  2  3  1  0  0  0  0
  2 21  1  0  0  0  0
  2 22  1  0  0  0  0
  3  4  1  0  0  0  0
  3 17  1  0  0  0  0
  4  5  1  0  0  0  0
  4 11  2  0  0  0  0
  5  6  2  0  0  0  0
  5  9  1  0  0  0  0
  6  7  1  0  0  0  0
  7  8  1  0  0  0  0
  8  9  2  0  0  0  0
  9 10  1  0  0  0  0
 10 23  1  0  0  0  0
 10 24  1  0  0  0  0
 11 12  1  0  0  0  0
 12 13  1  0  0  0  0
 12 17  2  0  0  0  0
 13 14  2  0  0  0  0
 13 25  1  0  0  0  0
 14 15  1  0  0  0  0
 15 16  2  0  0  0  0
 15 26  1  0  0  0  0
 16 17  1  0  0  0  0
 16 27  1  0  0  0  0
M  END
