
 OpenBabel03132512083D

 60 66  0  0  0  0  0  0  0  0999 V2000
    0.9266    0.0357    0.0578 O   0  0  0  0  0  0  0  0  0  0  0  0
    2.1975    0.0357    0.0578 C   0  0  0  0  0  0  0  0  0  0  0  0
    3.0002    1.1277    0.0579 C   0  0  0  0  0  0  0  0  0  0  0  0
    4.2707    0.6561    0.0690 C   0  0  0  0  0  0  0  0  0  0  0  0
    4.2024   -0.6472    0.0686 N   0  0  0  0  0  0  0  0  0  0  0  0
    5.3581   -1.5556    0.0789 C   0  0  0  0  0  0  0  0  0  0  0  0
    6.2588   -1.5062    1.1300 C   0  0  0  0  0  0  0  0  0  0  0  0
    7.4631   -2.2080    0.8865 C   0  0  0  0  0  0  0  0  0  0  0  0
    7.6203   -3.1221   -0.0536 C   0  0  0  0  0  0  0  0  0  0  0  0
    8.8045   -4.0749   -0.0542 C   0  0  0  0  0  0  0  0  0  0  0  0
    8.9975   -4.9287    1.0193 C   0  0  0  0  0  0  0  0  0  0  0  0
   10.2710   -5.5451    1.0398 C   0  0  0  0  0  0  0  0  0  0  0  0
   11.0814   -5.6246    0.0001 C   0  0  0  0  0  0  0  0  0  0  0  0
   12.2660   -6.5769   -0.0210 C   0  0  0  0  0  0  0  0  0  0  0  0
   13.0968   -6.6302   -1.1375 N   0  0  0  0  0  0  0  0  0  0  0  0
   14.1222   -7.4544   -1.1558 C   0  0  0  0  0  0  0  0  0  0  0  0
   14.9506   -7.5848   -2.1307 N   0  0  0  0  0  0  0  0  0  0  0  0
   15.8510   -8.4787   -1.8251 C   0  0  0  0  0  0  0  0  0  0  0  0
   16.9379   -8.8907   -2.6408 O   0  0  0  0  0  0  0  0  0  0  0  0
   17.8424   -9.8798   -2.1720 C   0  0  0  0  0  0  0  0  0  0  0  0
   17.0460  -10.9419   -1.9702 C   0  0  0  0  0  0  0  0  0  0  0  0
   16.3892  -10.8226   -0.6775 O   0  0  0  0  0  0  0  0  0  0  0  0
   17.2710   -9.8920    0.1768 C   0  0  0  0  0  0  0  0  0  0  0  0
   18.0200  -10.7176    1.2021 C   0  0  0  0  0  0  0  0  0  0  0  0
   17.2040  -11.7665    1.7025 O   0  0  0  0  0  0  0  0  0  0  0  0
   19.1250  -11.2152    0.5815 C   0  0  0  0  0  0  0  0  0  0  0  0
   19.5838  -10.2834   -0.4375 O   0  0  0  0  0  0  0  0  0  0  0  0
   18.3649   -9.4246   -0.8243 C   0  0  0  0  0  0  0  0  0  0  0  0
   15.5574   -8.9411   -0.5855 N   0  0  0  0  0  0  0  0  0  0  0  0
   14.4529   -8.2643   -0.1873 C   0  0  0  0  0  0  0  0  0  0  0  0
   13.7701   -8.4115    1.0721 C   0  0  0  0  0  0  0  0  0  0  0  0
   12.5292   -7.4239    1.1137 C   0  0  0  0  0  0  0  0  0  0  0  0
   11.4674   -7.3558    2.5406 Cl  0  0  0  0  0  0  0  0  0  0  0  0
   10.7975   -4.8044   -1.0563 C   0  0  0  0  0  0  0  0  0  0  0  0
    9.6360   -4.0711   -1.0895 C   0  0  0  0  0  0  0  0  0  0  0  0
    6.6604   -3.1652   -1.0264 C   0  0  0  0  0  0  0  0  0  0  0  0
    5.5165   -2.4110   -0.9243 C   0  0  0  0  0  0  0  0  0  0  0  0
    2.9705   -1.0158    0.0577 N   0  0  0  0  0  0  0  0  0  0  0  0
    2.6935    2.1527    0.0507 H   0  0  0  0  0  0  0  0  0  0  0  0
    5.1647    1.2439    0.0767 H   0  0  0  0  0  0  0  0  0  0  0  0
    6.0618   -0.9846    2.0433 H   0  0  0  0  0  0  0  0  0  0  0  0
    8.3049   -1.9825    1.5073 H   0  0  0  0  0  0  0  0  0  0  0  0
    8.2513   -5.1061    1.7653 H   0  0  0  0  0  0  0  0  0  0  0  0
   10.6003   -5.9767    1.9618 H   0  0  0  0  0  0  0  0  0  0  0  0
   18.6640  -10.0709   -2.8303 H   0  0  0  0  0  0  0  0  0  0  0  0
   16.3059  -10.9820   -2.7418 H   0  0  0  0  0  0  0  0  0  0  0  0
   17.6335  -11.8360   -1.9896 H   0  0  0  0  0  0  0  0  0  0  0  0
   16.7018   -9.1200    0.6512 H   0  0  0  0  0  0  0  0  0  0  0  0
   18.3083  -10.1031    2.0292 H   0  0  0  0  0  0  0  0  0  0  0  0
   16.9200  -12.3572    0.9472 H   0  0  0  0  0  0  0  0  0  0  0  0
   18.8788  -12.1484    0.1196 H   0  0  0  0  0  0  0  0  0  0  0  0
   19.9012  -11.3618    1.3032 H   0  0  0  0  0  0  0  0  0  0  0  0
   18.5967   -8.3800   -0.8294 H   0  0  0  0  0  0  0  0  0  0  0  0
   16.0642   -9.6532   -0.0596 H   0  0  0  0  0  0  0  0  0  0  0  0
   14.1308   -9.1103    1.7977 H   0  0  0  0  0  0  0  0  0  0  0  0
   11.4899   -4.7325   -1.8690 H   0  0  0  0  0  0  0  0  0  0  0  0
    9.3994   -3.4917   -1.9574 H   0  0  0  0  0  0  0  0  0  0  0  0
    6.8022   -3.7953   -1.8795 H   0  0  0  0  0  0  0  0  0  0  0  0
    4.7462   -2.5139   -1.6599 H   0  0  0  0  0  0  0  0  0  0  0  0
    2.6467   -1.9831    0.0502 H   0  0  0  0  0  0  0  0  0  0  0  0
  1  2  2  0  0  0  0
  2  3  1  0  0  0  0
  2 38  1  0  0  0  0
  3  4  2  0  0  0  0
  3 39  1  0  0  0  0
  4  5  1  0  0  0  0
  4 40  1  0  0  0  0
  5  6  1  0  0  0  0
  5 38  1  0  0  0  0
  6  7  1  0  0  0  0
  6 37  2  0  0  0  0
  7  8  2  0  0  0  0
  7 41  1  0  0  0  0
  8  9  1  0  0  0  0
  8 42  1  0  0  0  0
  9 10  1  0  0  0  0
  9 36  2  0  0  0  0
 10 11  1  0  0  0  0
 10 35  2  0  0  0  0
 11 12  2  0  0  0  0
 11 43  1  0  0  0  0
 12 13  1  0  0  0  0
 12 44  1  0  0  0  0
 13 14  1  0  0  0  0
 13 34  2  0  0  0  0
 14 15  1  0  0  0  0
 14 32  2  0  0  0  0
 15 16  2  0  0  0  0
 16 17  1  0  0  0  0
 16 30  1  0  0  0  0
 17 18  2  0  0  0  0
 18 19  1  0  0  0  0
 18 29  1  0  0  0  0
 19 20  1  0  0  0  0
 20 21  1  0  0  0  0
 20 28  1  0  0  0  0
 20 45  1  0  0  0  0
 21 22  1  0  0  0  0
 21 46  1  0  0  0  0
 21 47  1  0  0  0  0
 22 23  1  0  0  0  0
 23 24  1  0  0  0  0
 23 28  1  0  0  0  0
 23 48  1  0  0  0  0
 24 25  1  0  0  0  0
 24 26  1  0  0  0  0
 24 49  1  0  0  0  0
 25 50  1  0  0  0  0
 26 27  1  0  0  0  0
 26 51  1  0  0  0  0
 26 52  1  0  0  0  0
 27 28  1  0  0  0  0
 28 53  1  0  0  0  0
 29 30  1  0  0  0  0
 29 54  1  0  0  0  0
 30 31  2  0  0  0  0
 31 32  1  0  0  0  0
 31 55  1  0  0  0  0
 32 33  1  0  0  0  0
 34 35  1  0  0  0  0
 34 56  1  0  0  0  0
 35 57  1  0  0  0  0
 36 37  1  0  0  0  0
 36 58  1  0  0  0  0
 37 59  1  0  0  0  0
 38 60  1  0  0  0  0
M  END
