
 OpenBabel03132512093D

 39 42  0  0  0  0  0  0  0  0999 V2000
    0.9420    0.0649   -0.0492 C   0  0  0  0  0  0  0  0  0  0  0  0
    0.4353   -0.8553   -1.1478 C   0  0  0  0  0  0  0  0  0  0  0  0
    0.9419   -2.2668   -0.9002 C   0  0  0  0  0  0  0  0  0  0  0  0
   -1.0347   -0.8553   -1.1478 N   0  0  0  0  0  0  0  0  0  0  0  0
   -1.8056   -0.8843   -0.0799 N   0  0  0  0  0  0  0  0  0  0  0  0
   -3.0835   -0.8765   -0.4297 C   0  0  0  0  0  0  0  0  0  0  0  0
   -4.2645   -0.9047    0.5267 C   0  0  0  0  0  0  0  0  0  0  0  0
   -5.1805   -1.9363    0.4754 C   0  0  0  0  0  0  0  0  0  0  0  0
   -6.2115   -1.9675    1.3051 C   0  0  0  0  0  0  0  0  0  0  0  0
   -6.4001   -1.0235    2.2120 C   0  0  0  0  0  0  0  0  0  0  0  0
   -7.4957   -1.1009    3.0685 N   0  0  0  0  0  0  0  0  0  0  0  0
   -7.7020   -0.1112    4.0265 C   0  0  0  0  0  0  0  0  0  0  0  0
   -6.7825    0.9923    4.1315 C   0  0  0  0  0  0  0  0  0  0  0  0
   -5.7358    1.0624    3.3099 C   0  0  0  0  0  0  0  0  0  0  0  0
   -5.5231    0.0385    2.3197 C   0  0  0  0  0  0  0  0  0  0  0  0
   -4.4349    0.1060    1.4619 C   0  0  0  0  0  0  0  0  0  0  0  0
   -3.1611   -0.8398   -1.7591 C   0  0  0  0  0  0  0  0  0  0  0  0
   -4.2153   -0.8152   -2.6961 C   0  0  0  0  0  0  0  0  0  0  0  0
   -5.6130   -0.8302   -2.2410 N   0  0  0  0  0  0  0  0  0  0  0  0
   -3.9283   -0.7776   -4.0155 N   0  0  0  0  0  0  0  0  0  0  0  0
   -2.6456   -0.7700   -4.4646 C   0  0  0  0  0  0  0  0  0  0  0  0
   -1.5954   -0.7873   -3.6138 N   0  0  0  0  0  0  0  0  0  0  0  0
   -1.8205   -0.8254   -2.2363 C   0  0  0  0  0  0  0  0  0  0  0  0
    0.5853   -0.2810    0.8985 H   0  0  0  0  0  0  0  0  0  0  0  0
    0.5853    1.0585   -0.2235 H   0  0  0  0  0  0  0  0  0  0  0  0
    2.0120    0.0649   -0.0492 H   0  0  0  0  0  0  0  0  0  0  0  0
    0.7920   -0.5094   -2.0955 H   0  0  0  0  0  0  0  0  0  0  0  0
    0.5853   -2.6127    0.0474 H   0  0  0  0  0  0  0  0  0  0  0  0
    0.5853   -2.9146   -1.6736 H   0  0  0  0  0  0  0  0  0  0  0  0
    2.0119   -2.2668   -0.9002 H   0  0  0  0  0  0  0  0  0  0  0  0
   -5.0557   -2.7194   -0.2430 H   0  0  0  0  0  0  0  0  0  0  0  0
   -6.9093   -2.7761    1.2405 H   0  0  0  0  0  0  0  0  0  0  0  0
   -8.5437   -0.1707    4.6845 H   0  0  0  0  0  0  0  0  0  0  0  0
   -5.9408    1.0517    3.4735 H   0  0  0  0  0  0  0  0  0  0  0  0
   -5.0522    1.8820    3.3874 H   0  0  0  0  0  0  0  0  0  0  0  0
   -3.7423    0.9195    1.5201 H   0  0  0  0  0  0  0  0  0  0  0  0
   -5.8243   -0.8585   -1.2436 H   0  0  0  0  0  0  0  0  0  0  0  0
   -6.3716   -0.8122   -2.9227 H   0  0  0  0  0  0  0  0  0  0  0  0
   -2.4624   -0.7497   -5.5186 H   0  0  0  0  0  0  0  0  0  0  0  0
  1  2  1  0  0  0  0
  1 24  1  0  0  0  0
  1 25  1  0  0  0  0
  1 26  1  0  0  0  0
  2  3  1  0  0  0  0
  2  4  1  0  0  0  0
  2 27  1  0  0  0  0
  3 28  1  0  0  0  0
  3 29  1  0  0  0  0
  3 30  1  0  0  0  0
  4  5  1  0  0  0  0
  4 23  1  0  0  0  0
  5  6  2  0  0  0  0
  6  7  1  0  0  0  0
  6 17  1  0  0  0  0
  7  8  1  0  0  0  0
  7 16  2  0  0  0  0
  8  9  2  0  0  0  0
  8 31  1  0  0  0  0
  9 10  1  0  0  0  0
  9 32  1  0  0  0  0
 10 11  1  0  0  0  0
 10 15  2  0  0  0  0
 11 12  2  0  0  0  0
 12 13  1  0  0  0  0
 12 33  1  0  0  0  0
 13 14  2  0  0  0  0
 13 34  1  0  0  0  0
 14 15  1  0  0  0  0
 14 35  1  0  0  0  0
 15 16  1  0  0  0  0
 16 36  1  0  0  0  0
 17 18  1  0  0  0  0
 17 23  2  0  0  0  0
 18 19  1  0  0  0  0
 18 20  2  0  0  0  0
 19 37  1  0  0  0  0
 19 38  1  0  0  0  0
 20 21  1  0  0  0  0
 21 22  2  0  0  0  0
 21 39  1  0  0  0  0
 22 23  1  0  0  0  0
M  END
