
 OpenBabel03132512093D

 47 50  0  0  0  0  0  0  0  0999 V2000
    0.9386    0.0533    0.0582 C   0  0  0  0  0  0  0  0  0  0  0  0
    0.4486    1.4188   -0.1786 N   0  0  0  0  0  0  0  0  0  0  0  0
   -1.0214    1.4188   -0.1786 C   0  0  0  0  0  0  0  0  0  0  0  0
    1.0352    2.4818    1.0955 S   0  0  0  0  0  0  0  0  0  0  0  0
    0.5251    1.9845    2.4500 O   0  0  0  0  0  0  0  0  0  0  0  0
    2.5657    2.4819    1.0955 O   0  0  0  0  0  0  0  0  0  0  0  0
    0.4486    4.1168    0.8120 N   0  0  0  0  0  0  0  0  0  0  0  0
   -0.3966    4.4021   -0.3564 C   0  0  0  0  0  0  0  0  0  0  0  0
   -1.4443    3.5598   -0.6871 C   0  0  0  0  0  0  0  0  0  0  0  0
   -2.2816    3.8550   -1.7483 C   0  0  0  0  0  0  0  0  0  0  0  0
   -2.0342    5.0018   -2.4741 C   0  0  0  0  0  0  0  0  0  0  0  0
   -2.8656    5.2927   -3.5016 F   0  0  0  0  0  0  0  0  0  0  0  0
   -0.9848    5.8795   -2.2142 C   0  0  0  0  0  0  0  0  0  0  0  0
   -0.7386    7.0824   -3.0225 N   0  0  0  0  0  0  0  0  0  0  0  0
    0.3872    7.9695   -2.6961 C   0  0  0  0  0  0  0  0  0  0  0  0
    0.0994    9.2357   -2.3793 N   0  0  0  0  0  0  0  0  0  0  0  0
    1.1186   10.0427   -2.0450 C   0  0  0  0  0  0  0  0  0  0  0  0
    2.4302    9.6114   -2.0191 C   0  0  0  0  0  0  0  0  0  0  0  0
    2.7270    8.2928   -2.3728 C   0  0  0  0  0  0  0  0  0  0  0  0
    1.6672    7.4648   -2.7204 C   0  0  0  0  0  0  0  0  0  0  0  0
    1.9180    6.0205   -3.1223 C   0  0  0  0  0  0  0  0  0  0  0  0
    2.5019    5.2037   -2.2503 N   0  0  0  0  0  0  0  0  0  0  0  0
    2.6349    3.9084   -2.5599 C   0  0  0  0  0  0  0  0  0  0  0  0
    2.2643    3.2772   -3.6605 N   0  0  0  0  0  0  0  0  0  0  0  0
    1.6803    4.1068   -4.5363 C   0  0  0  0  0  0  0  0  0  0  0  0
    1.1375    3.7286   -5.7422 N   0  0  0  0  0  0  0  0  0  0  0  0
    0.6263    4.8383   -6.2283 C   0  0  0  0  0  0  0  0  0  0  0  0
    0.7948    5.9070   -5.4456 N   0  0  0  0  0  0  0  0  0  0  0  0
    1.4852    5.4800   -4.3300 C   0  0  0  0  0  0  0  0  0  0  0  0
   -0.1872    5.5281   -1.1285 C   0  0  0  0  0  0  0  0  0  0  0  0
    0.8647    6.3252   -0.8318 F   0  0  0  0  0  0  0  0  0  0  0  0
    0.5819   -0.5930   -0.7164 H   0  0  0  0  0  0  0  0  0  0  0  0
    0.5819   -0.2944    1.0052 H   0  0  0  0  0  0  0  0  0  0  0  0
    2.0086    0.0533    0.0582 H   0  0  0  0  0  0  0  0  0  0  0  0
   -1.3781    1.0711    0.7684 H   0  0  0  0  0  0  0  0  0  0  0  0
   -1.3781    2.4128   -0.3510 H   0  0  0  0  0  0  0  0  0  0  0  0
   -1.3781    0.7726   -0.9532 H   0  0  0  0  0  0  0  0  0  0  0  0
    0.6950    4.8663    1.4584 H   0  0  0  0  0  0  0  0  0  0  0  0
   -1.6084    2.6703   -0.1154 H   0  0  0  0  0  0  0  0  0  0  0  0
   -3.0987    3.2113   -1.9992 H   0  0  0  0  0  0  0  0  0  0  0  0
   -1.3489    7.3015   -3.8099 H   0  0  0  0  0  0  0  0  0  0  0  0
    0.9065   11.0597   -1.7887 H   0  0  0  0  0  0  0  0  0  0  0  0
    3.2128   10.2816   -1.7304 H   0  0  0  0  0  0  0  0  0  0  0  0
    3.7349    7.9334   -2.3757 H   0  0  0  0  0  0  0  0  0  0  0  0
    3.1054    3.3011   -1.8150 H   0  0  0  0  0  0  0  0  0  0  0  0
    0.1191    4.8812   -7.1695 H   0  0  0  0  0  0  0  0  0  0  0  0
    0.4746    6.8566   -5.6360 H   0  0  0  0  0  0  0  0  0  0  0  0
  1  2  1  0  0  0  0
  1 32  1  0  0  0  0
  1 33  1  0  0  0  0
  1 34  1  0  0  0  0
  2  3  1  0  0  0  0
  2  4  1  0  0  0  0
  3 35  1  0  0  0  0
  3 36  1  0  0  0  0
  3 37  1  0  0  0  0
  4  5  2  0  0  0  0
  4  6  2  0  0  0  0
  4  7  1  0  0  0  0
  7  8  1  0  0  0  0
  7 38  1  0  0  0  0
  8  9  1  0  0  0  0
  8 30  2  0  0  0  0
  9 10  2  0  0  0  0
  9 39  1  0  0  0  0
 10 11  1  0  0  0  0
 10 40  1  0  0  0  0
 11 12  1  0  0  0  0
 11 13  2  0  0  0  0
 13 14  1  0  0  0  0
 13 30  1  0  0  0  0
 14 15  1  0  0  0  0
 14 41  1  0  0  0  0
 15 16  1  0  0  0  0
 15 20  2  0  0  0  0
 16 17  2  0  0  0  0
 17 18  1  0  0  0  0
 17 42  1  0  0  0  0
 18 19  2  0  0  0  0
 18 43  1  0  0  0  0
 19 20  1  0  0  0  0
 19 44  1  0  0  0  0
 20 21  1  0  0  0  0
 21 22  1  0  0  0  0
 21 29  2  0  0  0  0
 22 23  2  0  0  0  0
 23 24  1  0  0  0  0
 23 45  1  0  0  0  0
 24 25  2  0  0  0  0
 25 26  1  0  0  0  0
 25 29  1  0  0  0  0
 26 27  2  0  0  0  0
 27 28  1  0  0  0  0
 27 46  1  0  0  0  0
 28 29  1  0  0  0  0
 28 47  1  0  0  0  0
 30 31  1  0  0  0  0
M  END
