REMARK  Name = 
REMARK  8 active torsions:
REMARK  status: ('A' for Active; 'I' for Inactive)
REMARK    1  A    between atoms: C_1  and  C_2
REMARK    2  A    between atoms: C_5  and  C_6
REMARK    3  A    between atoms: C_6  and  N_7
REMARK    4  A    between atoms: C_12  and  O_13
REMARK    5  A    between atoms: O_13  and  C_14
REMARK    6  A    between atoms: C_14  and  C_15
REMARK    7  A    between atoms: C_25  and  C_26
REMARK    8  A    between atoms: C_26  and  O_28
REMARK                            x       y       z     vdW  Elec       q    Type
REMARK                         _______ _______ _______ _____ _____    ______ ____
ROOT
ATOM      1  N   UNL     1      -3.785  -0.677  -1.256  0.00  0.00    +0.000 N 
ATOM      2  C   UNL     1      -4.734  -0.161  -2.162  0.00  0.00    +0.000 A 
ATOM      3  C   UNL     1      -5.043  -1.134  -3.047  0.00  0.00    +0.000 A 
ATOM      4  C   UNL     1      -4.335  -2.264  -2.747  0.00  0.00    +0.000 A 
ATOM      5  C   UNL     1      -4.302  -3.498  -3.336  0.00  0.00    +0.000 A 
ATOM      6  C   UNL     1      -3.506  -4.476  -2.850  0.00  0.00    +0.000 A 
ATOM      7  C   UNL     1      -2.698  -4.242  -1.729  0.00  0.00    +0.000 A 
ATOM      8  C   UNL     1      -2.720  -3.014  -1.129  0.00  0.00    +0.000 A 
ATOM      9  C   UNL     1      -3.550  -2.013  -1.647  0.00  0.00    +0.000 A 
ATOM     10  C   UNL     1      -6.031  -0.960  -4.178  0.00  0.00    +0.000 C 
ATOM     11  C   UNL     1      -6.887   0.280  -3.885  0.00  0.00    +0.000 C 
ATOM     12  C   UNL     1      -5.971   1.461  -3.550  0.00  0.00    +0.000 C 
ATOM     13  C   UNL     1      -5.323   1.228  -2.179  0.00  0.00    +0.000 C 
ENDROOT
BRANCH  11  14
ATOM     14  C   UNL     1      -7.805  -0.002  -2.707  0.00  0.00    +0.000 C 
ATOM     15  O   UNL     1      -9.066   0.068  -2.852  0.00  0.00    +0.000 OA
BRANCH  14  16
ATOM     16  O   UNL     1      -7.254  -0.344  -1.443  0.00  0.00    +0.000 OA
ATOM     17  H   UNL     1      -7.858  -0.530  -0.668  0.00  0.00    +0.000 HD
ENDBRANCH  14  16
ENDBRANCH  11  14
BRANCH   1  18
ATOM     18  C   UNL     1      -3.319   0.014  -0.045  0.00  0.00    +0.000 C 
BRANCH  18  23
ATOM     19  C   UNL     1       2.492   0.004  -0.014  0.00  0.00    +0.000 C 
ATOM     20  C   UNL     1       0.991  -0.005   0.013  0.00  0.00    +0.000 A 
ATOM     21  C   UNL     1       0.258  -1.197   0.006  0.00  0.00    +0.000 A 
ATOM     22  C   UNL     1      -1.108  -1.202   0.001  0.00  0.00    +0.000 A 
ATOM     23  C   UNL     1      -1.799   0.010  -0.013  0.00  0.00    +0.000 A 
ATOM     24  C   UNL     1      -1.109   1.206   0.002  0.00  0.00    +0.000 A 
ATOM     25  C   UNL     1       0.275   1.184   0.005  0.00  0.00    +0.000 A 
ENDBRANCH  18  23
ENDBRANCH   1  18
BRANCH   6  26
ATOM     26  O   UNL     1      -3.488  -5.749  -3.480  0.00  0.00    +0.000 OA
BRANCH  26  27
ATOM     27  C   UNL     1      -2.653  -6.780  -2.974  0.00  0.00    +0.000 C 
BRANCH  27  28
ATOM     28  C   UNL     1      -3.332  -8.080  -3.292  0.00  0.00    +0.000 A 
ATOM     29  C   UNL     1      -2.798  -9.310  -2.892  0.00  0.00    +0.000 A 
ATOM     30  C   UNL     1      -3.402 -10.494  -3.209  0.00  0.00    +0.000 A 
ATOM     31  C   UNL     1      -4.575 -10.486  -3.964  0.00  0.00    +0.000 A 
ATOM     32  C   UNL     1      -5.135  -9.291  -4.369  0.00  0.00    +0.000 A 
ATOM     33  C   UNL     1      -4.503  -8.105  -4.037  0.00  0.00    +0.000 A 
ENDBRANCH  27  28
ENDBRANCH  26  27
ENDBRANCH   6  26
TORSDOF 7
