
 OpenBabel03132512093D

 41 44  0  0  0  0  0  0  0  0999 V2000
    1.0376   -0.0714    0.0591 C   0  0  0  0  0  0  0  0  0  0  0  0
    0.5643   -1.3221    0.5365 O   0  0  0  0  0  0  0  0  0  0  0  0
    0.9073   -2.5188   -0.1466 C   0  0  0  0  0  0  0  0  0  0  0  0
   -0.1658   -3.3470   -0.4314 C   0  0  0  0  0  0  0  0  0  0  0  0
    0.2068   -4.6138   -0.9398 C   0  0  0  0  0  0  0  0  0  0  0  0
    1.3918   -4.8974   -1.4491 C   0  0  0  0  0  0  0  0  0  0  0  0
    2.3947   -4.0051   -1.1893 C   0  0  0  0  0  0  0  0  0  0  0  0
    2.1304   -2.8030   -0.5787 C   0  0  0  0  0  0  0  0  0  0  0  0
    3.2113   -1.8226   -0.4020 N   0  0  0  0  0  0  0  0  0  0  0  0
    4.1520   -1.2459   -1.3704 C   0  0  0  0  0  0  0  0  0  0  0  0
    4.1587    0.2691   -1.3029 C   0  0  0  0  0  0  0  0  0  0  0  0
    4.5356    0.7152    0.0437 N   0  0  0  0  0  0  0  0  0  0  0  0
    5.6680    1.5943    0.3690 C   0  0  0  0  0  0  0  0  0  0  0  0
    6.6436    1.1442    1.1875 N   0  0  0  0  0  0  0  0  0  0  0  0
    7.7113    1.9187    1.5151 C   0  0  0  0  0  0  0  0  0  0  0  0
    7.8552    3.1716    1.0286 N   0  0  0  0  0  0  0  0  0  0  0  0
    6.8837    3.6995    0.1760 C   0  0  0  0  0  0  0  0  0  0  0  0
    6.7164    4.8694   -0.4615 N   0  0  0  0  0  0  0  0  0  0  0  0
    5.5919    4.8125   -1.1455 N   0  0  0  0  0  0  0  0  0  0  0  0
    5.0060    3.6360   -0.9781 C   0  0  0  0  0  0  0  0  0  0  0  0
    3.3118    3.0770   -1.7898 Br  0  0  0  0  0  0  0  0  0  0  0  0
    5.7599    2.8963   -0.1663 C   0  0  0  0  0  0  0  0  0  0  0  0
    3.5950    0.1386    1.0121 C   0  0  0  0  0  0  0  0  0  0  0  0
    3.5882   -1.3765    0.9446 C   0  0  0  0  0  0  0  0  0  0  0  0
    0.6809    0.7114    0.6954 H   0  0  0  0  0  0  0  0  0  0  0  0
    0.6809    0.0883   -0.9370 H   0  0  0  0  0  0  0  0  0  0  0  0
    2.1076   -0.0714    0.0591 H   0  0  0  0  0  0  0  0  0  0  0  0
   -1.1842   -3.0552   -0.2806 H   0  0  0  0  0  0  0  0  0  0  0  0
   -0.5223   -5.3964   -0.9095 H   0  0  0  0  0  0  0  0  0  0  0  0
    1.5581   -5.7781   -2.0335 H   0  0  0  0  0  0  0  0  0  0  0  0
    3.3998   -4.2464   -1.4656 H   0  0  0  0  0  0  0  0  0  0  0  0
    5.1347   -1.5973   -1.1345 H   0  0  0  0  0  0  0  0  0  0  0  0
    3.8659   -1.5489   -2.3559 H   0  0  0  0  0  0  0  0  0  0  0  0
    3.1783    0.6329   -1.5294 H   0  0  0  0  0  0  0  0  0  0  0  0
    4.8632    0.6512   -2.0118 H   0  0  0  0  0  0  0  0  0  0  0  0
    8.4569    1.5266    2.1748 H   0  0  0  0  0  0  0  0  0  0  0  0
    5.2239    5.5684   -1.7232 H   0  0  0  0  0  0  0  0  0  0  0  0
    2.6122    0.4899    0.7762 H   0  0  0  0  0  0  0  0  0  0  0  0
    3.8810    0.4416    1.9977 H   0  0  0  0  0  0  0  0  0  0  0  0
    2.8768   -1.7540    1.6491 H   0  0  0  0  0  0  0  0  0  0  0  0
    4.5651   -1.7450    1.1785 H   0  0  0  0  0  0  0  0  0  0  0  0
  1  2  1  0  0  0  0
  1 25  1  0  0  0  0
  1 26  1  0  0  0  0
  1 27  1  0  0  0  0
  2  3  1  0  0  0  0
  3  4  1  0  0  0  0
  3  8  2  0  0  0  0
  4  5  2  0  0  0  0
  4 28  1  0  0  0  0
  5  6  1  0  0  0  0
  5 29  1  0  0  0  0
  6  7  2  0  0  0  0
  6 30  1  0  0  0  0
  7  8  1  0  0  0  0
  7 31  1  0  0  0  0
  8  9  1  0  0  0  0
  9 10  1  0  0  0  0
  9 24  1  0  0  0  0
 10 11  1  0  0  0  0
 10 32  1  0  0  0  0
 10 33  1  0  0  0  0
 11 12  1  0  0  0  0
 11 34  1  0  0  0  0
 11 35  1  0  0  0  0
 12 13  1  0  0  0  0
 12 23  1  0  0  0  0
 13 14  2  0  0  0  0
 13 22  1  0  0  0  0
 14 15  1  0  0  0  0
 15 16  2  0  0  0  0
 15 36  1  0  0  0  0
 16 17  1  0  0  0  0
 17 18  2  0  0  0  0
 17 22  1  0  0  0  0
 18 19  1  0  0  0  0
 19 20  1  0  0  0  0
 19 37  1  0  0  0  0
 20 21  1  0  0  0  0
 20 22  2  0  0  0  0
 23 24  1  0  0  0  0
 23 38  1  0  0  0  0
 23 39  1  0  0  0  0
 24 40  1  0  0  0  0
 24 41  1  0  0  0  0
M  END
