REMARK  Name = 
REMARK  6 active torsions:
REMARK  status: ('A' for Active; 'I' for Inactive)
REMARK    1  A    between atoms: N_5  and  C_6
REMARK    2  A    between atoms: C_9  and  C_10
REMARK    3  A    between atoms: C_13  and  C_14
REMARK    4  A    between atoms: C_18  and  O_19
REMARK    5  A    between atoms: O_19  and  C_20
REMARK    6  A    between atoms: C_24  and  O_25
REMARK                            x       y       z     vdW  Elec       q    Type
REMARK                         _______ _______ _______ _____ _____    ______ ____
ROOT
ATOM      1  C   UNL     1      12.266  -6.577  -0.021  0.00  0.00    +0.000 A 
ATOM      2  N   UNL     1      13.097  -6.630  -1.137  0.00  0.00    +0.000 NA
ATOM      3  C   UNL     1      14.122  -7.454  -1.156  0.00  0.00    +0.000 A 
ATOM      4  N   UNL     1      14.951  -7.585  -2.131  0.00  0.00    +0.000 NA
ATOM      5  C   UNL     1      15.851  -8.479  -1.825  0.00  0.00    +0.000 A 
ATOM      6  N   UNL     1      15.557  -8.941  -0.586  0.00  0.00    +0.000 N 
ATOM      7  C   UNL     1      14.453  -8.264  -0.187  0.00  0.00    +0.000 A 
ATOM      8  C   UNL     1      13.770  -8.412   1.072  0.00  0.00    +0.000 A 
ATOM      9  C   UNL     1      12.529  -7.424   1.114  0.00  0.00    +0.000 A 
ATOM     10 CL   UNL     1      11.467  -7.356   2.541  0.00  0.00    +0.000 Cl
ATOM     11  H   UNL     1      16.064  -9.653  -0.060  0.00  0.00    +0.000 HD
ENDROOT
BRANCH   1  15
ATOM     12  C   UNL     1       8.805  -4.075  -0.054  0.00  0.00    +0.000 A 
ATOM     13  C   UNL     1       8.998  -4.929   1.019  0.00  0.00    +0.000 A 
ATOM     14  C   UNL     1      10.271  -5.545   1.040  0.00  0.00    +0.000 A 
ATOM     15  C   UNL     1      11.081  -5.625   0.000  0.00  0.00    +0.000 A 
ATOM     16  C   UNL     1      10.797  -4.804  -1.056  0.00  0.00    +0.000 A 
ATOM     17  C   UNL     1       9.636  -4.071  -1.089  0.00  0.00    +0.000 A 
BRANCH  12  21
ATOM     18  C   UNL     1       5.358  -1.556   0.079  0.00  0.00    +0.000 A 
ATOM     19  C   UNL     1       6.259  -1.506   1.130  0.00  0.00    +0.000 A 
ATOM     20  C   UNL     1       7.463  -2.208   0.886  0.00  0.00    +0.000 A 
ATOM     21  C   UNL     1       7.620  -3.122  -0.054  0.00  0.00    +0.000 A 
ATOM     22  C   UNL     1       6.660  -3.165  -1.026  0.00  0.00    +0.000 A 
ATOM     23  C   UNL     1       5.516  -2.411  -0.924  0.00  0.00    +0.000 A 
BRANCH  18  28
ATOM     24  O   UNL     1       0.927   0.036   0.058  0.00  0.00    +0.000 OA
ATOM     25  C   UNL     1       2.197   0.036   0.058  0.00  0.00    +0.000 A 
ATOM     26  C   UNL     1       3.000   1.128   0.058  0.00  0.00    +0.000 A 
ATOM     27  C   UNL     1       4.271   0.656   0.069  0.00  0.00    +0.000 A 
ATOM     28  N   UNL     1       4.202  -0.647   0.069  0.00  0.00    +0.000 N 
ATOM     29  N   UNL     1       2.970  -1.016   0.058  0.00  0.00    +0.000 N 
ATOM     30  H   UNL     1       2.647  -1.983   0.050  0.00  0.00    +0.000 HD
ENDBRANCH  18  28
ENDBRANCH  12  21
ENDBRANCH   1  15
BRANCH   5  31
ATOM     31  O   UNL     1      16.938  -8.891  -2.641  0.00  0.00    +0.000 OA
BRANCH  31  32
ATOM     32  C   UNL     1      17.842  -9.880  -2.172  0.00  0.00    +0.000 C 
ATOM     33  C   UNL     1      17.046 -10.942  -1.970  0.00  0.00    +0.000 C 
ATOM     34  O   UNL     1      16.389 -10.823  -0.677  0.00  0.00    +0.000 OA
ATOM     35  C   UNL     1      17.271  -9.892   0.177  0.00  0.00    +0.000 C 
ATOM     36  C   UNL     1      18.020 -10.718   1.202  0.00  0.00    +0.000 C 
ATOM     37  C   UNL     1      19.125 -11.215   0.582  0.00  0.00    +0.000 C 
ATOM     38  O   UNL     1      19.584 -10.283  -0.438  0.00  0.00    +0.000 OA
ATOM     39  C   UNL     1      18.365  -9.425  -0.824  0.00  0.00    +0.000 C 
BRANCH  36  40
ATOM     40  O   UNL     1      17.204 -11.767   1.702  0.00  0.00    +0.000 OA
ATOM     41  H   UNL     1      16.920 -12.357   0.947  0.00  0.00    +0.000 HD
ENDBRANCH  36  40
ENDBRANCH  31  32
ENDBRANCH   5  31
TORSDOF 6
