REMARK  Name = 
REMARK  6 active torsions:
REMARK  status: ('A' for Active; 'I' for Inactive)
REMARK    1  A    between atoms: C_2  and  O_3
REMARK    2  A    between atoms: C_2  and  C_4
REMARK    3  A    between atoms: C_11  and  C_12
REMARK    4  A    between atoms: C_15  and  C_16
REMARK    5  A    between atoms: C_16  and  C_17
REMARK    6  A    between atoms: C_17  and  O_19
REMARK                            x       y       z     vdW  Elec       q    Type
REMARK                         _______ _______ _______ _____ _____    ______ ____
ROOT
ATOM      1  C   UNL     1       2.961   0.283   1.216  0.00  0.00    +0.000 A 
ATOM      2  C   UNL     1       4.023   1.143   1.377  0.00  0.00    +0.000 A 
ATOM      3  N   UNL     1       4.403   1.195   2.691  0.00  0.00    +0.000 N 
ATOM      4  C   UNL     1       3.621   0.322   3.411  0.00  0.00    +0.000 A 
ATOM      5  C   UNL     1       3.694  -0.020   4.766  0.00  0.00    +0.000 A 
ATOM      6  C   UNL     1       2.810  -0.990   5.194  0.00  0.00    +0.000 A 
ATOM      7 CL   UNL     1       2.859  -1.493   6.865  0.00  0.00    +0.000 Cl
ATOM      8  C   UNL     1       1.884  -1.618   4.343  0.00  0.00    +0.000 A 
ATOM      9  C   UNL     1       1.821  -1.263   3.005  0.00  0.00    +0.000 A 
ATOM     10  C   UNL     1       2.692  -0.272   2.518  0.00  0.00    +0.000 A 
ATOM     11  H   UNL     1       5.144   1.782   3.073  0.00  0.00    +0.000 HD
ENDROOT
BRANCH   8  12
ATOM     12  C   UNL     1       0.953  -2.687   4.890  0.00  0.00    +0.000 A 
ATOM     13  C   UNL     1       0.928  -3.967   4.360  0.00  0.00    +0.000 A 
ATOM     14  C   UNL     1      -0.209  -4.721   4.734  0.00  0.00    +0.000 A 
ATOM     15  C   UNL     1      -0.998  -4.431   5.753  0.00  0.00    +0.000 A 
ATOM     16  C   UNL     1      -0.878  -3.173   6.276  0.00  0.00    +0.000 A 
ATOM     17  C   UNL     1       0.128  -2.331   5.867  0.00  0.00    +0.000 A 
BRANCH  15  18
ATOM     18  C   UNL     1      -1.986  -5.441   6.313  0.00  0.00    +0.000 C 
ATOM     19  C   UNL     1      -2.642  -4.907   7.589  0.00  0.00    +0.000 C 
ATOM     20  C   UNL     1      -3.499  -5.211   6.357  0.00  0.00    +0.000 C 
BRANCH  18  21
ATOM     21  C   UNL     1      -1.198  -6.637   5.806  0.00  0.00    +0.000 C 
ATOM     22  O   UNL     1      -0.116  -6.458   5.163  0.00  0.00    +0.000 OA
BRANCH  21  23
ATOM     23  O   UNL     1      -1.671  -7.954   6.048  0.00  0.00    +0.000 OA
ATOM     24  H   UNL     1      -1.152  -8.741   5.714  0.00  0.00    +0.000 HD
ENDBRANCH  21  23
ENDBRANCH  18  21
ENDBRANCH  15  18
ENDBRANCH   8  12
BRANCH   1  26
ATOM     25  O   UNL     1       0.930   0.010  -0.071  0.00  0.00    +0.000 OA
ATOM     26  C   UNL     1       2.201   0.010  -0.071  0.00  0.00    +0.000 C 
BRANCH  26  27
ATOM     27  O   UNL     1       2.911  -0.245  -1.274  0.00  0.00    +0.000 OA
ATOM     28  H   UNL     1       3.911  -0.245  -1.274  0.00  0.00    +0.000 HD
ENDBRANCH  26  27
ENDBRANCH   1  26
TORSDOF 6
