REMARK  Name = 
REMARK  3 active torsions:
REMARK  status: ('A' for Active; 'I' for Inactive)
REMARK    1  A    between atoms: C_2  and  O_3
REMARK    2  A    between atoms: C_2  and  C_4
REMARK    3  A    between atoms: C_11  and  C_12
REMARK                            x       y       z     vdW  Elec       q    Type
REMARK                         _______ _______ _______ _____ _____    ______ ____
ROOT
ATOM      1  C   UNL     1       3.109  -1.223   0.339  0.00  0.00    +0.000 A 
ATOM      2  N   UNL     1       4.115  -1.335   1.155  0.00  0.00    +0.000 NA
ATOM      3  N   UNL     1       4.499  -2.675   1.269  0.00  0.00    +0.000 N 
ATOM      4  C   UNL     1       3.677  -3.444   0.470  0.00  0.00    +0.000 A 
ATOM      5  C   UNL     1       3.603  -4.806   0.202  0.00  0.00    +0.000 A 
ATOM      6  C   UNL     1       2.642  -5.286  -0.660  0.00  0.00    +0.000 A 
ATOM      7 CL   UNL     1       2.543  -7.032  -0.989  0.00  0.00    +0.000 Cl
ATOM      8  C   UNL     1       1.745  -4.414  -1.278  0.00  0.00    +0.000 A 
ATOM      9  C   UNL     1       1.803  -3.058  -1.022  0.00  0.00    +0.000 A 
ATOM     10  C   UNL     1       2.772  -2.561  -0.144  0.00  0.00    +0.000 A 
ATOM     11  H   UNL     1       5.261  -3.026   1.847  0.00  0.00    +0.000 HD
ENDROOT
BRANCH   8  12
ATOM     12  C   UNL     1       0.699  -4.958  -2.236  0.00  0.00    +0.000 A 
ATOM     13  C   UNL     1      -0.192  -5.848  -1.795  0.00  0.00    +0.000 A 
ATOM     14  C   UNL     1      -1.131  -6.393  -2.714  0.00  0.00    +0.000 A 
ATOM     15  C   UNL     1      -0.923  -6.225  -4.093  0.00  0.00    +0.000 A 
ATOM     16  C   UNL     1      -0.049  -5.360  -4.519  0.00  0.00    +0.000 A 
ATOM     17  C   UNL     1       0.678  -4.588  -3.603  0.00  0.00    +0.000 A 
ATOM     18  C   UNL     1       0.183  -5.188  -6.011  0.00  0.00    +0.000 C 
ATOM     19  C   UNL     1       0.649  -6.506  -6.607  0.00  0.00    +0.000 C 
ATOM     20  C   UNL     1      -1.720  -7.053  -5.088  0.00  0.00    +0.000 C 
ENDBRANCH   8  12
BRANCH   1  22
ATOM     21  O   UNL     1       1.078   0.034  -0.053  0.00  0.00    +0.000 OA
ATOM     22  C   UNL     1       2.349   0.034  -0.053  0.00  0.00    +0.000 C 
BRANCH  22  23
ATOM     23  O   UNL     1       3.059   1.208  -0.418  0.00  0.00    +0.000 OA
ATOM     24  H   UNL     1       4.059   1.208  -0.418  0.00  0.00    +0.000 HD
ENDBRANCH  22  23
ENDBRANCH   1  22
TORSDOF 3
