REMARK  Name = 
REMARK  6 active torsions:
REMARK  status: ('A' for Active; 'I' for Inactive)
REMARK    1  A    between atoms: C_5  and  C_6
REMARK    2  A    between atoms: C_11  and  C_12
REMARK    3  A    between atoms: C_15  and  O_16
REMARK    4  A    between atoms: O_16  and  C_17
REMARK    5  A    between atoms: C_17  and  C_18
REMARK    6  A    between atoms: C_18  and  N_19
REMARK                            x       y       z     vdW  Elec       q    Type
REMARK                         _______ _______ _______ _____ _____    ______ ____
ROOT
ATOM      1  C   UNL     1      -3.345   0.197  -0.137  0.00  0.00    +0.000 A 
ATOM      2  C   UNL     1      -4.111   0.841  -1.157  0.00  0.00    +0.000 A 
ATOM      3  N   UNL     1      -5.461   0.789  -0.995  0.00  0.00    +0.000 NA
ATOM      4  N   UNL     1      -5.579   0.070   0.185  0.00  0.00    +0.000 N 
ATOM      5  C   UNL     1      -6.743  -0.284   0.794  0.00  0.00    +0.000 A 
ATOM      6  C   UNL     1      -6.655  -1.017   1.979  0.00  0.00    +0.000 A 
ATOM      7  C   UNL     1      -5.351  -1.317   2.549  0.00  0.00    +0.000 A 
ATOM      8  N   UNL     1      -4.221  -0.991   1.892  0.00  0.00    +0.000 NA
ATOM      9  C   UNL     1      -4.291  -0.284   0.737  0.00  0.00    +0.000 A 
ENDROOT
BRANCH   1  14
ATOM     10  N   UNL     1       2.246  -0.077  -0.031  0.00  0.00    +0.000 N 
ATOM     11  C   UNL     1       0.919  -0.078   0.007  0.00  0.00    +0.000 A 
ATOM     12  C   UNL     1       0.157  -1.277   0.047  0.00  0.00    +0.000 A 
ATOM     13  C   UNL     1      -1.214  -1.174  -0.014  0.00  0.00    +0.000 A 
ATOM     14  C   UNL     1      -1.833   0.074  -0.040  0.00  0.00    +0.000 A 
ATOM     15  C   UNL     1      -1.016   1.214   0.026  0.00  0.00    +0.000 A 
ATOM     16  N   UNL     1       0.314   1.142   0.009  0.00  0.00    +0.000 NA
ATOM     17  H   UNL     1       2.755   0.807  -0.057  0.00  0.00    +0.000 HD
ATOM     18  H   UNL     1       2.757  -0.960  -0.035  0.00  0.00    +0.000 HD
ENDBRANCH   1  14
BRANCH   6  19
ATOM     19  C   UNL     1      -7.920  -1.500   2.672  0.00  0.00    +0.000 A 
ATOM     20  C   UNL     1      -8.803  -2.329   2.001  0.00  0.00    +0.000 A 
ATOM     21  C   UNL     1     -10.068  -2.443   2.624  0.00  0.00    +0.000 A 
ATOM     22  C   UNL     1     -10.315  -2.121   3.881  0.00  0.00    +0.000 A 
ATOM     23  C   UNL     1      -9.372  -1.357   4.510  0.00  0.00    +0.000 A 
ATOM     24  C   UNL     1      -8.163  -1.093   3.912  0.00  0.00    +0.000 A 
BRANCH  22  25
ATOM     25  O   UNL     1     -11.498  -2.544   4.543  0.00  0.00    +0.000 OA
BRANCH  25  26
ATOM     26  C   UNL     1     -11.725  -2.175   5.895  0.00  0.00    +0.000 C 
BRANCH  26  27
ATOM     27  C   UNL     1     -10.603  -2.719   6.764  0.00  0.00    +0.000 C 
BRANCH  27  28
ATOM     28  N   UNL     1      -9.320  -2.161   6.314  0.00  0.00    +0.000 NA
ATOM     29  C   UNL     1      -8.969  -0.950   7.079  0.00  0.00    +0.000 C 
ATOM     30  C   UNL     1      -9.842   0.199   6.629  0.00  0.00    +0.000 C 
ATOM     31  O   UNL     1      -9.701   0.431   5.227  0.00  0.00    +0.000 OA
ATOM     32  C   UNL     1     -10.078  -0.738   4.500  0.00  0.00    +0.000 C 
ATOM     33  C   UNL     1      -9.194  -1.917   4.862  0.00  0.00    +0.000 C 
ENDBRANCH  27  28
ENDBRANCH  26  27
ENDBRANCH  25  26
ENDBRANCH  22  25
ENDBRANCH   6  19
TORSDOF 6
