
 OpenBabel03132512093D

 54 57  0  0  0  0  0  0  0  0999 V2000
    0.9778    0.0964    0.0147 C   0  0  0  0  0  0  0  0  0  0  0  0
    0.5044   -0.3071   -1.2619 O   0  0  0  0  0  0  0  0  0  0  0  0
    0.8475    0.4450   -2.4165 C   0  0  0  0  0  0  0  0  0  0  0  0
   -0.1085    0.5776   -3.3848 C   0  0  0  0  0  0  0  0  0  0  0  0
    0.2075    1.1953   -4.6155 C   0  0  0  0  0  0  0  0  0  0  0  0
   -0.7658    1.3519   -5.5693 N   0  0  0  0  0  0  0  0  0  0  0  0
   -0.4029    1.9277   -6.6823 C   0  0  0  0  0  0  0  0  0  0  0  0
    0.8488    2.3780   -7.0046 N   0  0  0  0  0  0  0  0  0  0  0  0
    1.7924    2.2219   -6.1077 C   0  0  0  0  0  0  0  0  0  0  0  0
    3.1573    2.6682   -6.4222 N   0  0  0  0  0  0  0  0  0  0  0  0
    3.4484    3.2793   -7.7270 C   0  0  0  0  0  0  0  0  0  0  0  0
    4.4763    2.7704   -8.4939 C   0  0  0  0  0  0  0  0  0  0  0  0
    4.8760    3.3980   -9.6667 C   0  0  0  0  0  0  0  0  0  0  0  0
    4.2212    4.5613  -10.0679 C   0  0  0  0  0  0  0  0  0  0  0  0
    3.1910    5.0692   -9.2990 C   0  0  0  0  0  0  0  0  0  0  0  0
    2.3435    6.4888   -9.8095 Cl  0  0  0  0  0  0  0  0  0  0  0  0
    2.8207    4.4266   -8.1394 C   0  0  0  0  0  0  0  0  0  0  0  0
    1.8000    4.9185   -7.4079 F   0  0  0  0  0  0  0  0  0  0  0  0
    1.5327    1.6326   -4.8377 C   0  0  0  0  0  0  0  0  0  0  0  0
    2.5071    1.4711   -3.8266 C   0  0  0  0  0  0  0  0  0  0  0  0
    2.1636    0.8939   -2.6375 C   0  0  0  0  0  0  0  0  0  0  0  0
    3.2089    0.7351   -1.5455 C   0  0  0  0  0  0  0  0  0  0  0  0
    4.3136   -0.0980   -2.0419 N   0  0  0  0  0  0  0  0  0  0  0  0
    3.7882   -1.4147   -2.4255 C   0  0  0  0  0  0  0  0  0  0  0  0
    4.9092   -2.3179   -2.8922 C   0  0  0  0  0  0  0  0  0  0  0  0
    5.6560   -1.6947   -4.0694 C   0  0  0  0  0  0  0  0  0  0  0  0
    6.0977   -0.2743   -3.7217 C   0  0  0  0  0  0  0  0  0  0  0  0
    4.9218    0.5399   -3.2081 C   0  0  0  0  0  0  0  0  0  0  0  0
    5.4253    1.9151   -2.8009 C   0  0  0  0  0  0  0  0  0  0  0  0
    4.8955    3.1169   -3.4611 N   0  0  0  0  0  0  0  0  0  0  0  0
    6.3043    2.0258   -1.8897 O   0  0  0  0  0  0  0  0  0  0  0  0
    0.6211   -0.5847    0.7589 H   0  0  0  0  0  0  0  0  0  0  0  0
    0.6211    1.0814    0.2324 H   0  0  0  0  0  0  0  0  0  0  0  0
    2.0478    0.0964    0.0147 H   0  0  0  0  0  0  0  0  0  0  0  0
   -1.0990    0.2125   -3.2100 H   0  0  0  0  0  0  0  0  0  0  0  0
   -1.1646    2.0623   -7.4216 H   0  0  0  0  0  0  0  0  0  0  0  0
    3.9023    2.5537   -5.7350 H   0  0  0  0  0  0  0  0  0  0  0  0
    4.9740    1.8769   -8.1797 H   0  0  0  0  0  0  0  0  0  0  0  0
    5.6746    2.9945  -10.2535 H   0  0  0  0  0  0  0  0  0  0  0  0
    4.5150    5.0594  -10.9681 H   0  0  0  0  0  0  0  0  0  0  0  0
    3.5116    1.8003   -3.9925 H   0  0  0  0  0  0  0  0  0  0  0  0
    3.5848    1.6980   -1.2688 H   0  0  0  0  0  0  0  0  0  0  0  0
    2.7648    0.2669   -0.6920 H   0  0  0  0  0  0  0  0  0  0  0  0
    3.0897   -1.2885   -3.2261 H   0  0  0  0  0  0  0  0  0  0  0  0
    3.3053   -1.8606   -1.5811 H   0  0  0  0  0  0  0  0  0  0  0  0
    4.4887   -3.2496   -3.2084 H   0  0  0  0  0  0  0  0  0  0  0  0
    5.5942   -2.4721   -2.0848 H   0  0  0  0  0  0  0  0  0  0  0  0
    6.5210   -2.2860   -4.2866 H   0  0  0  0  0  0  0  0  0  0  0  0
    5.0102   -1.6652   -4.9220 H   0  0  0  0  0  0  0  0  0  0  0  0
    6.8447   -0.3224   -2.9571 H   0  0  0  0  0  0  0  0  0  0  0  0
    6.4948    0.1950   -4.5975 H   0  0  0  0  0  0  0  0  0  0  0  0
    4.1889    0.6238   -3.9832 H   0  0  0  0  0  0  0  0  0  0  0  0
    5.2333    4.0397   -3.1878 H   0  0  0  0  0  0  0  0  0  0  0  0
    4.1900    3.0280   -4.1924 H   0  0  0  0  0  0  0  0  0  0  0  0
  1  2  1  0  0  0  0
  1 32  1  0  0  0  0
  1 33  1  0  0  0  0
  1 34  1  0  0  0  0
  2  3  1  0  0  0  0
  3  4  1  0  0  0  0
  3 21  2  0  0  0  0
  4  5  2  0  0  0  0
  4 35  1  0  0  0  0
  5  6  1  0  0  0  0
  5 19  1  0  0  0  0
  6  7  2  0  0  0  0
  7  8  1  0  0  0  0
  7 36  1  0  0  0  0
  8  9  2  0  0  0  0
  9 10  1  0  0  0  0
  9 19  1  0  0  0  0
 10 11  1  0  0  0  0
 10 37  1  0  0  0  0
 11 12  1  0  0  0  0
 11 17  2  0  0  0  0
 12 13  2  0  0  0  0
 12 38  1  0  0  0  0
 13 14  1  0  0  0  0
 13 39  1  0  0  0  0
 14 15  2  0  0  0  0
 14 40  1  0  0  0  0
 15 16  1  0  0  0  0
 15 17  1  0  0  0  0
 17 18  1  0  0  0  0
 19 20  2  0  0  0  0
 20 21  1  0  0  0  0
 20 41  1  0  0  0  0
 21 22  1  0  0  0  0
 22 23  1  0  0  0  0
 22 42  1  0  0  0  0
 22 43  1  0  0  0  0
 23 24  1  0  0  0  0
 23 28  1  0  0  0  0
 24 25  1  0  0  0  0
 24 44  1  0  0  0  0
 24 45  1  0  0  0  0
 25 26  1  0  0  0  0
 25 46  1  0  0  0  0
 25 47  1  0  0  0  0
 26 27  1  0  0  0  0
 26 48  1  0  0  0  0
 26 49  1  0  0  0  0
 27 28  1  0  0  0  0
 27 50  1  0  0  0  0
 27 51  1  0  0  0  0
 28 29  1  0  0  0  0
 28 52  1  0  0  0  0
 29 30  1  0  0  0  0
 29 31  2  0  0  0  0
 30 53  1  0  0  0  0
 30 54  1  0  0  0  0
M  END
