REMARK  Name = 
REMARK  9 active torsions:
REMARK  status: ('A' for Active; 'I' for Inactive)
REMARK    1  A    between atoms: C_1  and  C_2
REMARK    2  A    between atoms: C_2  and  N_3
REMARK    3  A    between atoms: C_5  and  C_6
REMARK    4  A    between atoms: C_15  and  C_16
REMARK    5  A    between atoms: C_20  and  N_21
REMARK    6  A    between atoms: N_24  and  C_25
REMARK    7  A    between atoms: C_28  and  O_29
REMARK    8  A    between atoms: O_29  and  C_30
REMARK    9  A    between atoms: C_30  and  C_31
REMARK                            x       y       z     vdW  Elec       q    Type
REMARK                         _______ _______ _______ _____ _____    ______ ____
ROOT
ATOM      1  C   UNL     1       0.711  -6.021  -0.591  0.00  0.00    +0.000 A 
ATOM      2  C   UNL     1       0.268  -6.778   0.481  0.00  0.00    +0.000 A 
ATOM      3  C   UNL     1       0.265  -8.171   0.236  0.00  0.00    +0.000 A 
ATOM      4  C   UNL     1       0.313  -8.721  -0.963  0.00  0.00    +0.000 A 
ATOM      5  C   UNL     1       0.692  -7.904  -1.992  0.00  0.00    +0.000 A 
ATOM      6  C   UNL     1       0.843  -6.551  -1.801  0.00  0.00    +0.000 A 
ENDROOT
BRANCH   5   7
ATOM      7  N   UNL     1       0.941  -8.480  -3.321  0.00  0.00    +0.000 N 
ATOM      8  C   UNL     1       0.782  -9.925  -3.537  0.00  0.00    +0.000 C 
ATOM      9  O   UNL     1       0.997 -10.424  -4.686  0.00  0.00    +0.000 OA
ATOM     10  N   UNL     1       0.375 -10.794  -2.424  0.00  0.00    +0.000 N 
ATOM     11  H   UNL     1       1.224  -7.877  -4.094  0.00  0.00    +0.000 HD
ATOM     12  H   UNL     1       0.265 -11.797  -2.574  0.00  0.00    +0.000 HD
BRANCH  10  13
ATOM     13  C   UNL     1       0.126 -10.218  -1.095  0.00  0.00    +0.000 A 
ATOM     14  C   UNL     1       0.527 -10.905   0.039  0.00  0.00    +0.000 A 
ATOM     15  C   UNL     1      -0.128 -10.489   1.223  0.00  0.00    +0.000 A 
ATOM     16  C   UNL     1      -0.777  -9.347   1.358  0.00  0.00    +0.000 A 
ATOM     17  C   UNL     1      -1.084  -8.682   0.203  0.00  0.00    +0.000 A 
ATOM     18  C   UNL     1      -0.590  -9.103  -1.008  0.00  0.00    +0.000 A 
BRANCH  16  19
ATOM     19  O   UNL     1      -1.137  -8.837   2.634  0.00  0.00    +0.000 OA
BRANCH  19  20
ATOM     20  C   UNL     1      -1.835  -7.605   2.734  0.00  0.00    +0.000 C 
BRANCH  20  21
ATOM     21  C   UNL     1      -0.997  -6.496   2.119  0.00  0.00    +0.000 A 
ATOM     22  C   UNL     1       0.185  -6.742   1.441  0.00  0.00    +0.000 A 
ATOM     23  C   UNL     1       0.930  -5.576   1.144  0.00  0.00    +0.000 A 
ATOM     24  C   UNL     1       0.439  -4.351   1.157  0.00  0.00    +0.000 A 
ATOM     25  C   UNL     1      -0.766  -4.185   1.783  0.00  0.00    +0.000 A 
ATOM     26  C   UNL     1      -1.491  -5.268   2.217  0.00  0.00    +0.000 A 
ENDBRANCH  20  21
ENDBRANCH  19  20
ENDBRANCH  16  19
ENDBRANCH  10  13
ENDBRANCH   5   7
BRANCH   1  30
ATOM     27  N   UNL     1       1.008  -2.446  -0.594  0.00  0.00    +0.000 N 
ATOM     28  C   UNL     1       1.970  -2.748   0.312  0.00  0.00    +0.000 A 
ATOM     29  C   UNL     1       1.969  -4.099   0.420  0.00  0.00    +0.000 A 
ATOM     30  C   UNL     1       1.054  -4.553  -0.392  0.00  0.00    +0.000 A 
ATOM     31  N   UNL     1       0.486  -3.571  -0.997  0.00  0.00    +0.000 NA
BRANCH  29  32
ATOM     32  C   UNL     1       2.868  -4.931   1.319  0.00  0.00    +0.000 A 
ATOM     33  C   UNL     1       3.838  -4.284   2.165  0.00  0.00    +0.000 A 
ATOM     34  C   UNL     1       3.955  -2.848   2.159  0.00  0.00    +0.000 A 
ATOM     35  N   UNL     1       4.893  -2.222   2.977  0.00  0.00    +0.000 NA
ATOM     36  C   UNL     1       5.671  -2.942   3.756  0.00  0.00    +0.000 A 
ATOM     37  N   UNL     1       6.634  -2.530   4.615  0.00  0.00    +0.000 N 
ATOM     38  C   UNL     1       7.050  -3.641   5.270  0.00  0.00    +0.000 A 
ATOM     39  C   UNL     1       6.362  -4.648   4.805  0.00  0.00    +0.000 A 
ATOM     40  C   UNL     1       5.545  -4.233   3.902  0.00  0.00    +0.000 A 
ATOM     41  H   UNL     1       6.977  -1.578   4.742  0.00  0.00    +0.000 HD
ENDBRANCH  29  32
BRANCH  27  43
ATOM     42  C   UNL     1       1.025  -0.059  -0.076  0.00  0.00    +0.000 C 
ATOM     43  C   UNL     1       0.518  -1.130  -1.029  0.00  0.00    +0.000 C 
ENDBRANCH  27  43
ENDBRANCH   1  30
TORSDOF 8
