
 OpenBabel03132514253D

 47 50  0  0  0  0  0  0  0  0999 V2000
    1.0340    0.0775    0.0532 C   0  0  0  0  0  0  0  0  0  0  0  0
    0.5274    0.1512   -1.3779 C   0  0  0  0  0  0  0  0  0  0  0  0
   -0.2033   -0.7794   -1.8420 O   0  0  0  0  0  0  0  0  0  0  0  0
    0.8825    1.2987   -2.2252 N   0  0  0  0  0  0  0  0  0  0  0  0
    0.2321    2.1591   -3.3223 C   0  0  0  0  0  0  0  0  0  0  0  0
    1.6396    2.3239   -3.9178 C   0  0  0  0  0  0  0  0  0  0  0  0
    2.0326    3.5528   -4.7215 C   0  0  0  0  0  0  0  0  0  0  0  0
    3.4174    3.4936   -5.0300 O   0  0  0  0  0  0  0  0  0  0  0  0
    4.3765    3.4467   -3.9840 C   0  0  0  0  0  0  0  0  0  0  0  0
    5.5014    4.2516   -4.0570 C   0  0  0  0  0  0  0  0  0  0  0  0
    6.5116    3.9107   -3.1267 C   0  0  0  0  0  0  0  0  0  0  0  0
    6.3199    3.1682   -2.0515 C   0  0  0  0  0  0  0  0  0  0  0  0
    7.3367    3.1155   -0.9229 C   0  0  0  0  0  0  0  0  0  0  0  0
    7.6664    4.2807   -0.2505 C   0  0  0  0  0  0  0  0  0  0  0  0
    8.8178    4.1665    0.5639 C   0  0  0  0  0  0  0  0  0  0  0  0
    9.4634    5.3828    0.9859 C   0  0  0  0  0  0  0  0  0  0  0  0
    8.9040    6.7289    0.5554 C   0  0  0  0  0  0  0  0  0  0  0  0
    9.4737    7.8022    0.9278 O   0  0  0  0  0  0  0  0  0  0  0  0
    7.7450    6.7873   -0.2629 O   0  0  0  0  0  0  0  0  0  0  0  0
   10.6389    5.3235    1.8158 C   0  0  0  0  0  0  0  0  0  0  0  0
   10.2695    2.9625    2.0010 N   0  0  0  0  0  0  0  0  0  0  0  0
    9.3416    3.0221    0.9639 C   0  0  0  0  0  0  0  0  0  0  0  0
    8.9242    1.8990    0.3053 C   0  0  0  0  0  0  0  0  0  0  0  0
    7.8927    1.9535   -0.6008 C   0  0  0  0  0  0  0  0  0  0  0  0
    7.2964    0.4528   -1.3496 Cl  0  0  0  0  0  0  0  0  0  0  0  0
    5.1577    2.4493   -2.0082 C   0  0  0  0  0  0  0  0  0  0  0  0
    4.1784    2.6315   -2.9547 C   0  0  0  0  0  0  0  0  0  0  0  0
    2.1861    2.0696   -2.5032 C   0  0  0  0  0  0  0  0  0  0  0  0
    0.6774   -0.8209    0.5121 H   0  0  0  0  0  0  0  0  0  0  0  0
    0.6774    0.9241    0.6019 H   0  0  0  0  0  0  0  0  0  0  0  0
    2.1040    0.0775    0.0532 H   0  0  0  0  0  0  0  0  0  0  0  0
   -0.5918    1.8047   -3.9059 H   0  0  0  0  0  0  0  0  0  0  0  0
   -0.2157    3.0662   -2.9735 H   0  0  0  0  0  0  0  0  0  0  0  0
    1.9088    1.5830   -4.6413 H   0  0  0  0  0  0  0  0  0  0  0  0
    1.4659    3.5819   -5.6286 H   0  0  0  0  0  0  0  0  0  0  0  0
    1.8324    4.4334   -4.1475 H   0  0  0  0  0  0  0  0  0  0  0  0
    5.5978    5.0579   -4.7537 H   0  0  0  0  0  0  0  0  0  0  0  0
    7.4994    4.2803   -3.3068 H   0  0  0  0  0  0  0  0  0  0  0  0
    7.1016    5.1852   -0.3389 H   0  0  0  0  0  0  0  0  0  0  0  0
    7.3770    7.6730   -0.5461 H   0  0  0  0  0  0  0  0  0  0  0  0
   11.1186    6.2271    2.1293 H   0  0  0  0  0  0  0  0  0  0  0  0
   10.6567    2.0635    2.2878 H   0  0  0  0  0  0  0  0  0  0  0  0
    9.4077    0.9642    0.4983 H   0  0  0  0  0  0  0  0  0  0  0  0
    5.0086    1.7345   -1.2261 H   0  0  0  0  0  0  0  0  0  0  0  0
    3.2477    2.1119   -2.8614 H   0  0  0  0  0  0  0  0  0  0  0  0
    2.5185    2.8672   -1.8722 H   0  0  0  0  0  0  0  0  0  0  0  0
    3.0748    1.4749   -2.4665 H   0  0  0  0  0  0  0  0  0  0  0  0
  1  2  1  0  0  0  0
  1 29  1  0  0  0  0
  1 30  1  0  0  0  0
  1 31  1  0  0  0  0
  2  3  2  0  0  0  0
  2  4  1  0  0  0  0
  4  5  1  0  0  0  0
  4 28  1  0  0  0  0
  5  6  1  0  0  0  0
  5 32  1  0  0  0  0
  5 33  1  0  0  0  0
  6  7  1  0  0  0  0
  6 28  1  0  0  0  0
  6 34  1  0  0  0  0
  7  8  1  0  0  0  0
  7 35  1  0  0  0  0
  7 36  1  0  0  0  0
  8  9  1  0  0  0  0
  9 10  1  0  0  0  0
  9 27  2  0  0  0  0
 10 11  2  0  0  0  0
 10 37  1  0  0  0  0
 11 12  1  0  0  0  0
 11 38  1  0  0  0  0
 12 13  1  0  0  0  0
 12 26  2  0  0  0  0
 13 14  1  0  0  0  0
 13 24  2  0  0  0  0
 14 15  2  0  0  0  0
 14 39  1  0  0  0  0
 15 16  1  0  0  0  0
 15 22  1  0  0  0  0
 16 17  1  0  0  0  0
 16 20  2  0  0  0  0
 17 18  2  0  0  0  0
 17 19  1  0  0  0  0
 19 40  1  0  0  0  0
 20 21  1  0  0  0  0
 20 41  1  0  0  0  0
 21 22  1  0  0  0  0
 21 42  1  0  0  0  0
 22 23  2  0  0  0  0
 23 24  1  0  0  0  0
 23 43  1  0  0  0  0
 24 25  1  0  0  0  0
 26 27  1  0  0  0  0
 26 44  1  0  0  0  0
 27 45  1  0  0  0  0
 28 46  1  0  0  0  0
 28 47  1  0  0  0  0
M  END
