REMARK  Name = 
REMARK  7 active torsions:
REMARK  status: ('A' for Active; 'I' for Inactive)
REMARK    1  A    between atoms: C_1  and  C_2
REMARK    2  A    between atoms: C_2  and  N_3
REMARK    3  A    between atoms: C_2  and  C_26
REMARK    4  A    between atoms: C_4  and  C_6
REMARK    5  A    between atoms: C_12  and  C_13
REMARK    6  A    between atoms: N_15  and  C_16
REMARK    7  A    between atoms: C_30  and  C_31
REMARK                            x       y       z     vdW  Elec       q    Type
REMARK                         _______ _______ _______ _____ _____    ______ ____
ROOT
ATOM      1  C   UNL     1      -1.471   2.951   1.027  0.00  0.00    +0.000 A 
ATOM      2  C   UNL     1      -2.420   3.531   0.226  0.00  0.00    +0.000 A 
ATOM      3  N   UNL     1      -3.646   3.039   0.551  0.00  0.00    +0.000 N 
ATOM      4  C   UNL     1      -3.549   2.104   1.560  0.00  0.00    +0.000 A 
ATOM      5  N   UNL     1      -4.436   1.349   2.207  0.00  0.00    +0.000 NA
ATOM      6  C   UNL     1      -4.045   0.507   3.152  0.00  0.00    +0.000 A 
ATOM      7  C   UNL     1      -2.689   0.407   3.507  0.00  0.00    +0.000 A 
ATOM      8  N   UNL     1      -1.803   1.161   2.857  0.00  0.00    +0.000 NA
ATOM      9  C   UNL     1      -2.188   2.004   1.902  0.00  0.00    +0.000 A 
ATOM     10  H   UNL     1      -4.520   3.323   0.108  0.00  0.00    +0.000 HD
ENDROOT
BRANCH   7  11
ATOM     11  C   UNL     1      -2.242  -0.539   4.609  0.00  0.00    +0.000 A 
ATOM     12  C   UNL     1      -1.797  -0.237   5.811  0.00  0.00    +0.000 A 
ATOM     13  N   UNL     1      -1.696  -1.328   6.556  0.00  0.00    +0.000 N 
ATOM     14  C   UNL     1      -1.232  -1.374   7.951  0.00  0.00    +0.000 C 
ATOM     15  C   UNL     1      -2.083  -2.377   5.832  0.00  0.00    +0.000 A 
ATOM     16  C   UNL     1      -2.195  -3.763   6.065  0.00  0.00    +0.000 A 
ATOM     17  C   UNL     1      -2.639  -4.568   5.075  0.00  0.00    +0.000 A 
ATOM     18 CL   UNL     1      -2.787  -6.316   5.377  0.00  0.00    +0.000 Cl
ATOM     19  C   UNL     1      -2.976  -4.074   3.854  0.00  0.00    +0.000 A 
ATOM     20  C   UNL     1      -2.894  -2.754   3.575  0.00  0.00    +0.000 A 
ATOM     21  C   UNL     1      -2.443  -1.866   4.553  0.00  0.00    +0.000 A 
ENDBRANCH   7  11
BRANCH   1  23
ATOM     22  N   UNL     1       0.979   2.112   1.061  0.00  0.00    +0.000 N 
ATOM     23  C   UNL     1       0.023   3.228   1.015  0.00  0.00    +0.000 C 
ATOM     24  O   UNL     1       0.447   4.426   0.965  0.00  0.00    +0.000 OA
ATOM     25  H   UNL     1       1.981   2.298   1.054  0.00  0.00    +0.000 HD
BRANCH  22  27
ATOM     26  C   UNL     1       0.995  -0.040  -0.091  0.00  0.00    +0.000 C 
ATOM     27  C   UNL     1       0.489   0.727   1.119  0.00  0.00    +0.000 C 
BRANCH  27  28
ATOM     28  C   UNL     1      -1.031   0.727   1.119  0.00  0.00    +0.000 C 
ATOM     29  O   UNL     1      -1.667   0.217   2.094  0.00  0.00    +0.000 OA
ATOM     30  N   UNL     1      -1.766   1.317  -0.009  0.00  0.00    +0.000 N 
ATOM     31  C   UNL     1      -3.058   2.130  -0.204  0.00  0.00    +0.000 C 
ATOM     32  C   UNL     1      -3.188   1.447  -1.575  0.00  0.00    +0.000 C 
ATOM     33  C   UNL     1      -1.661   1.264  -1.544  0.00  0.00    +0.000 C 
BRANCH  32  34
ATOM     34  C   UNL     1      -3.893   2.117  -2.743  0.00  0.00    +0.000 C 
ATOM     35  N   UNL     1      -4.478   2.674  -3.711  0.00  0.00    +0.000 NA
ENDBRANCH  32  34
ENDBRANCH  27  28
ENDBRANCH  22  27
ENDBRANCH   1  23
TORSDOF 5
