REMARK  Name = 
REMARK  4 active torsions:
REMARK  status: ('A' for Active; 'I' for Inactive)
REMARK    1  A    between atoms: C_2  and  C_5
REMARK    2  A    between atoms: C_5  and  N_6
REMARK    3  A    between atoms: N_6  and  C_7
REMARK    4  A    between atoms: N_10  and  C_11
REMARK                            x       y       z     vdW  Elec       q    Type
REMARK                         _______ _______ _______ _____ _____    ______ ____
ROOT
ATOM      1  C   UNL     1       1.403   0.557  -3.443  0.00  0.00    +0.000 A 
ATOM      2  N   UNL     1       1.781   1.813  -3.876  0.00  0.00    +0.000 NA
ATOM      3  C   UNL     1       1.067   2.453  -4.889  0.00  0.00    +0.000 A 
ATOM      4  N   UNL     1       1.473   3.795  -5.331  0.00  0.00    +0.000 N 
ATOM      5  N   UNL     1      -0.014   1.838  -5.479  0.00  0.00    +0.000 NA
ATOM      6  C   UNL     1      -0.409   0.574  -5.057  0.00  0.00    +0.000 A 
ATOM      7  C   UNL     1      -1.425  -0.282  -5.433  0.00  0.00    +0.000 A 
ATOM      8  C   UNL     1      -1.350  -1.443  -4.659  0.00  0.00    +0.000 A 
ATOM      9  O   UNL     1      -0.353  -1.364  -3.826  0.00  0.00    +0.000 OA
ATOM     10  C   UNL     1       0.303  -0.074  -4.032  0.00  0.00    +0.000 A 
ATOM     11  H   UNL     1       2.274   4.255  -4.897  0.00  0.00    +0.000 HD
ENDROOT
BRANCH   4  12
ATOM     12  C   UNL     1       0.725   4.475  -6.398  0.00  0.00    +0.000 A 
ATOM     13  C   UNL     1      -0.633   4.769  -6.276  0.00  0.00    +0.000 A 
ATOM     14  C   UNL     1      -1.327   5.311  -7.340  0.00  0.00    +0.000 A 
ATOM     15  C   UNL     1      -0.662   5.558  -8.545  0.00  0.00    +0.000 A 
ATOM     16  C   UNL     1      -1.077   6.106  -9.836  0.00  0.00    +0.000 A 
ATOM     17  N   UNL     1      -0.038   6.114 -10.618  0.00  0.00    +0.000 NA
ATOM     18  N   UNL     1       1.077   5.602  -9.947  0.00  0.00    +0.000 N 
ATOM     19  C   UNL     1       0.705   5.254  -8.664  0.00  0.00    +0.000 A 
ATOM     20  C   UNL     1       1.388   4.710  -7.582  0.00  0.00    +0.000 A 
ATOM     21  H   UNL     1       2.012   5.502 -10.341  0.00  0.00    +0.000 HD
ENDBRANCH   4  12
BRANCH   1  22
ATOM     22  N   UNL     1       2.248  -0.110  -2.442  0.00  0.00    +0.000 N 
ATOM     23  H   UNL     1       2.494  -1.093  -2.557  0.00  0.00    +0.000 HD
BRANCH  22  24
ATOM     24  C   UNL     1       2.738   0.640  -1.277  0.00  0.00    +0.000 C 
BRANCH  24  26
ATOM     25  F   UNL     1       0.901  -0.016  -0.003  0.00  0.00    +0.000 F 
ATOM     26  C   UNL     1       2.231  -0.016  -0.003  0.00  0.00    +0.000 C 
ATOM     27  F   UNL     1       2.675   0.662   1.052  0.00  0.00    +0.000 F 
ATOM     28  F   UNL     1       2.675  -1.268   0.057  0.00  0.00    +0.000 F 
ENDBRANCH  24  26
ENDBRANCH  22  24
ENDBRANCH   1  22
TORSDOF 4
