REMARK  Name = 
REMARK  6 active torsions:
REMARK  status: ('A' for Active; 'I' for Inactive)
REMARK    1  A    between atoms: C_2  and  O_3
REMARK    2  A    between atoms: C_2  and  C_4
REMARK    3  A    between atoms: C_6  and  O_7
REMARK    4  A    between atoms: O_7  and  C_8
REMARK    5  A    between atoms: C_14  and  C_15
REMARK    6  A    between atoms: C_16  and  C_17
REMARK                            x       y       z     vdW  Elec       q    Type
REMARK                         _______ _______ _______ _____ _____    ______ ____
ROOT
ATOM      1  C   UNL     1       6.204   1.431  -4.639  0.00  0.00    +0.000 A 
ATOM      2  N   UNL     1       7.221   0.914  -5.438  0.00  0.00    +0.000 NA
ATOM      3  C   UNL     1       7.794   1.731  -6.517  0.00  0.00    +0.000 A 
ATOM      4  C   UNL     1       8.140   3.068  -6.343  0.00  0.00    +0.000 A 
ATOM      5  C   UNL     1       8.819   3.720  -7.358  0.00  0.00    +0.000 A 
ATOM      6 CL   UNL     1       9.230   5.394  -7.137  0.00  0.00    +0.000 Cl
ATOM      7  C   UNL     1       9.209   3.072  -8.521  0.00  0.00    +0.000 A 
ATOM      8  C   UNL     1       8.848   1.736  -8.684  0.00  0.00    +0.000 A 
ATOM      9  C   UNL     1       8.141   1.074  -7.692  0.00  0.00    +0.000 A 
ATOM     10  N   UNL     1       5.730   2.721  -4.862  0.00  0.00    +0.000 N 
ATOM     11  H   UNL     1       4.984   3.099  -4.277  0.00  0.00    +0.000 HD
ENDROOT
BRANCH   7  12
ATOM     12  C   UNL     1      10.009   3.800  -9.588  0.00  0.00    +0.000 C 
ATOM     13  C   UNL     1      10.696   4.424 -10.504  0.00  0.00    +0.000 C 
BRANCH  13  14
ATOM     14  C   UNL     1      11.496   5.152 -11.572  0.00  0.00    +0.000 A 
ATOM     15  C   UNL     1      11.491   6.575 -11.585  0.00  0.00    +0.000 A 
ATOM     16  C   UNL     1      11.850   7.255 -12.760  0.00  0.00    +0.000 A 
ATOM     17  C   UNL     1      12.439   6.616 -13.727  0.00  0.00    +0.000 A 
ATOM     18  C   UNL     1      12.726   5.251 -13.595  0.00  0.00    +0.000 A 
ATOM     19  C   UNL     1      12.107   4.502 -12.565  0.00  0.00    +0.000 A 
ENDBRANCH  13  14
ENDBRANCH   7  12
BRANCH   1  20
ATOM     20  O   UNL     1       5.650   0.641  -3.596  0.00  0.00    +0.000 OA
BRANCH  20  23
ATOM     21  C   UNL     1       3.066   0.902  -0.950  0.00  0.00    +0.000 A 
ATOM     22  C   UNL     1       4.075   0.394  -1.766  0.00  0.00    +0.000 A 
ATOM     23  C   UNL     1       4.613   1.167  -2.782  0.00  0.00    +0.000 A 
ATOM     24  C   UNL     1       4.143   2.456  -3.009  0.00  0.00    +0.000 A 
ATOM     25  C   UNL     1       3.142   2.981  -2.198  0.00  0.00    +0.000 A 
ATOM     26  C   UNL     1       2.640   2.204  -1.168  0.00  0.00    +0.000 A 
ATOM     27 CL   UNL     1       1.402   2.876  -0.150  0.00  0.00    +0.000 Cl
BRANCH  21  29
ATOM     28  O   UNL     1       1.035   0.066   0.067  0.00  0.00    +0.000 OA
ATOM     29  C   UNL     1       2.306   0.066   0.067  0.00  0.00    +0.000 C 
BRANCH  29  30
ATOM     30  O   UNL     1       3.016  -0.716   1.016  0.00  0.00    +0.000 OA
ATOM     31  H   UNL     1       4.016  -0.716   1.016  0.00  0.00    +0.000 HD
ENDBRANCH  29  30
ENDBRANCH  21  29
ENDBRANCH  20  23
ENDBRANCH   1  20
TORSDOF 6
