REMARK  Name = 
REMARK  10 active torsions:
REMARK  status: ('A' for Active; 'I' for Inactive)
REMARK    1  A    between atoms: C_1  and  N_2
REMARK    2  A    between atoms: C_3  and  C_5
REMARK    3  A    between atoms: C_5  and  C_6
REMARK    4  A    between atoms: C_5  and  N_7
REMARK    5  A    between atoms: N_7  and  C_8
REMARK    6  A    between atoms: N_7  and  C_9
REMARK    7  A    between atoms: C_9  and  C_10
REMARK    8  A    between atoms: N_14  and  C_15
REMARK    9  A    between atoms: C_28  and  O_29
REMARK   10  A    between atoms: O_29  and  C_30
REMARK                            x       y       z     vdW  Elec       q    Type
REMARK                         _______ _______ _______ _____ _____    ______ ____
ROOT
ATOM      1  C   UNL     1       0.723   0.548   1.947  0.00  0.00    +0.000 A 
ATOM      2  C   UNL     1       1.326  -0.615   2.333  0.00  0.00    +0.000 A 
ATOM      3  C   UNL     1       2.495  -0.572   3.126  0.00  0.00    +0.000 A 
ATOM      4  C   UNL     1       3.194  -1.727   3.578  0.00  0.00    +0.000 A 
ATOM      5  N   UNL     1       2.708  -3.057   3.182  0.00  0.00    +0.000 N 
ATOM      6  N   UNL     1       4.260  -1.639   4.337  0.00  0.00    +0.000 NA
ATOM      7  C   UNL     1       4.695  -0.383   4.663  0.00  0.00    +0.000 A 
ATOM      8  N   UNL     1       4.162   0.750   4.297  0.00  0.00    +0.000 NA
ATOM      9  C   UNL     1       3.038   0.674   3.514  0.00  0.00    +0.000 A 
ATOM     10  C   UNL     1       2.405   1.859   3.076  0.00  0.00    +0.000 A 
ATOM     11  C   UNL     1       1.267   1.792   2.321  0.00  0.00    +0.000 A 
ATOM     12  H   UNL     1       1.880  -3.142   2.592  0.00  0.00    +0.000 HD
ENDROOT
BRANCH   5  13
ATOM     13  C   UNL     1       3.414  -4.263   3.637  0.00  0.00    +0.000 A 
ATOM     14  C   UNL     1       4.020  -5.157   2.779  0.00  0.00    +0.000 A 
ATOM     15  C   UNL     1       4.724  -6.252   3.262  0.00  0.00    +0.000 A 
ATOM     16  C   UNL     1       4.814  -6.444   4.640  0.00  0.00    +0.000 A 
ATOM     17  C   UNL     1       4.206  -5.547   5.499  0.00  0.00    +0.000 A 
ATOM     18 CL   UNL     1       4.347  -5.751   7.211  0.00  0.00    +0.000 Cl
ATOM     19  C   UNL     1       3.512  -4.473   4.989  0.00  0.00    +0.000 A 
ATOM     20  F   UNL     1       2.942  -3.592   5.836  0.00  0.00    +0.000 F 
ENDBRANCH   5  13
BRANCH  11  21
ATOM     21  O   UNL     1       0.626   2.990   1.911  0.00  0.00    +0.000 OA
ATOM     22  C   UNL     1      -0.556   2.931   1.127  0.00  0.00    +0.000 C 
ENDBRANCH  11  21
BRANCH   1  23
ATOM     23  C   UNL     1      -0.543   0.500   1.108  0.00  0.00    +0.000 C 
BRANCH  23  24
ATOM     24  N   UNL     1      -1.389  -0.614   1.560  0.00  0.00    +0.000 NA
ATOM     25  C   UNL     1      -1.744  -0.418   2.973  0.00  0.00    +0.000 C 
BRANCH  24  26
ATOM     26  C   UNL     1      -0.654  -1.879   1.411  0.00  0.00    +0.000 C 
ATOM     27  C   UNL     1       0.613  -1.831   2.250  0.00  0.00    +0.000 C 
BRANCH  26  30
ATOM     28  C   UNL     1       1.049   0.086  -0.016  0.00  0.00    +0.000 C 
ATOM     29  N   UNL     1       0.559  -1.096  -0.739  0.00  0.00    +0.000 N 
ATOM     30  C   UNL     1      -0.286  -2.082  -0.050  0.00  0.00    +0.000 C 
ATOM     31  O   UNL     1      -0.710  -3.104  -0.675  0.00  0.00    +0.000 OA
ATOM     32  H   UNL     1       0.805  -1.232  -1.720  0.00  0.00    +0.000 HD
ENDBRANCH  26  30
ENDBRANCH  24  26
ENDBRANCH  23  24
ENDBRANCH   1  23
TORSDOF 6
