REMARK  Name = 
REMARK  11 active torsions:
REMARK  status: ('A' for Active; 'I' for Inactive)
REMARK    1  A    between atoms: C_2  and  O_3
REMARK    2  A    between atoms: C_2  and  C_16
REMARK    3  A    between atoms: O_3  and  C_4
REMARK    4  A    between atoms: C_6  and  C_7
REMARK    5  A    between atoms: C_7  and  O_9
REMARK    6  A    between atoms: C_10  and  O_11
REMARK    7  A    between atoms: C_12  and  O_13
REMARK    8  A    between atoms: C_14  and  O_15
REMARK    9  A    between atoms: C_23  and  C_24
REMARK   10  A    between atoms: C_27  and  C_28
REMARK   11  A    between atoms: C_28  and  O_29
REMARK                            x       y       z     vdW  Elec       q    Type
REMARK                         _______ _______ _______ _____ _____    ______ ____
ROOT
ATOM      1  C   UNL     1       2.991  -1.149   0.814  0.00  0.00    +0.000 A 
ATOM      2  C   UNL     1       4.000  -1.040   1.743  0.00  0.00    +0.000 A 
ATOM      3  N   UNL     1       4.270  -2.260   2.302  0.00  0.00    +0.000 N 
ATOM      4  C   UNL     1       3.468  -3.206   1.706  0.00  0.00    +0.000 A 
ATOM      5  C   UNL     1       3.444  -4.591   1.895  0.00  0.00    +0.000 A 
ATOM      6  C   UNL     1       2.569  -5.297   1.094  0.00  0.00    +0.000 A 
ATOM      7 CL   UNL     1       2.502  -7.035   1.249  0.00  0.00    +0.000 Cl
ATOM      8  C   UNL     1       1.742  -4.688   0.134  0.00  0.00    +0.000 A 
ATOM      9  C   UNL     1       1.773  -3.313  -0.036  0.00  0.00    +0.000 A 
ATOM     10  C   UNL     1       2.639  -2.544   0.762  0.00  0.00    +0.000 A 
ATOM     11  H   UNL     1       4.953  -2.439   3.038  0.00  0.00    +0.000 HD
ENDROOT
BRANCH   8  12
ATOM     12  C   UNL     1       0.813  -5.537  -0.718  0.00  0.00    +0.000 A 
ATOM     13  C   UNL     1       0.952  -5.633  -2.093  0.00  0.00    +0.000 A 
ATOM     14  C   UNL     1      -0.119  -6.302  -2.732  0.00  0.00    +0.000 A 
ATOM     15  C   UNL     1      -0.987  -7.084  -2.116  0.00  0.00    +0.000 A 
ATOM     16  C   UNL     1      -1.028  -6.992  -0.753  0.00  0.00    +0.000 A 
ATOM     17  C   UNL     1      -0.096  -6.253  -0.066  0.00  0.00    +0.000 A 
BRANCH  15  18
ATOM     18  C   UNL     1      -1.892  -8.034  -2.883  0.00  0.00    +0.000 C 
ATOM     19  C   UNL     1      -1.823  -9.554  -2.651  0.00  0.00    +0.000 C 
ATOM     20  C   UNL     1      -2.465  -9.786  -4.029  0.00  0.00    +0.000 C 
ATOM     21  C   UNL     1      -2.056  -8.358  -4.412  0.00  0.00    +0.000 C 
BRANCH  18  22
ATOM     22  O   UNL     1      -3.127  -7.499  -2.459  0.00  0.00    +0.000 OA
ATOM     23  H   UNL     1      -3.875  -8.015  -2.876  0.00  0.00    +0.000 HD
ENDBRANCH  18  22
ENDBRANCH  15  18
ENDBRANCH   8  12
BRANCH   1  25
ATOM     24  O   UNL     1       0.960  -0.080   0.045  0.00  0.00    +0.000 OA
ATOM     25  C   UNL     1       2.231  -0.080   0.045  0.00  0.00    +0.000 C 
BRANCH  25  26
ATOM     26  O   UNL     1       2.941   0.919  -0.672  0.00  0.00    +0.000 OA
BRANCH  26  27
ATOM     27  C   UNL     1       4.361   0.919  -0.672  0.00  0.00    +0.000 C 
ATOM     28  O   UNL     1       4.873  -0.464  -1.081  0.00  0.00    +0.000 OA
ATOM     29  C   UNL     1       4.443  -0.756  -2.413  0.00  0.00    +0.000 C 
ATOM     30  C   UNL     1       4.931   0.158  -3.397  0.00  0.00    +0.000 C 
ATOM     31  C   UNL     1       4.421   1.566  -3.081  0.00  0.00    +0.000 C 
ATOM     32  C   UNL     1       4.874   1.960  -1.672  0.00  0.00    +0.000 C 
BRANCH  29  33
ATOM     33  C   UNL     1       2.928  -0.640  -2.419  0.00  0.00    +0.000 C 
ATOM     34  O   UNL     1       2.214  -1.651  -2.708  0.00  0.00    +0.000 OA
BRANCH  33  35
ATOM     35  O   UNL     1       2.309   0.598  -2.102  0.00  0.00    +0.000 OA
ATOM     36  H   UNL     1       1.312   0.674  -2.106  0.00  0.00    +0.000 HD
ENDBRANCH  33  35
ENDBRANCH  29  33
BRANCH  30  37
ATOM     37  O   UNL     1       4.468  -0.237  -4.680  0.00  0.00    +0.000 OA
ATOM     38  H   UNL     1       3.469  -0.235  -4.689  0.00  0.00    +0.000 HD
ENDBRANCH  30  37
BRANCH  31  39
ATOM     39  O   UNL     1       3.003   1.587  -3.150  0.00  0.00    +0.000 OA
ATOM     40  H   UNL     1       2.627   0.940  -2.486  0.00  0.00    +0.000 HD
ENDBRANCH  31  39
BRANCH  32  41
ATOM     41  O   UNL     1       4.353   3.239  -1.341  0.00  0.00    +0.000 OA
ATOM     42  H   UNL     1       3.354   3.211  -1.374  0.00  0.00    +0.000 HD
ENDBRANCH  32  41
ENDBRANCH  26  27
ENDBRANCH  25  26
ENDBRANCH   1  25
TORSDOF 11
