
 OpenBabel03132512093D

 61 63  0  0  0  0  0  0  0  0999 V2000
    1.0823   -0.0053   -0.0566 C   0  0  0  0  0  0  0  0  0  0  0  0
    0.6089    1.2590   -0.4969 O   0  0  0  0  0  0  0  0  0  0  0  0
    0.9520    2.4350    0.2214 C   0  0  0  0  0  0  0  0  0  0  0  0
   -0.0794    3.2498    0.5975 C   0  0  0  0  0  0  0  0  0  0  0  0
    0.1556    4.3381    1.4672 C   0  0  0  0  0  0  0  0  0  0  0  0
   -0.8903    5.1318    1.8640 N   0  0  0  0  0  0  0  0  0  0  0  0
   -0.6002    6.1199    2.6650 C   0  0  0  0  0  0  0  0  0  0  0  0
    0.6387    6.4571    3.1388 N   0  0  0  0  0  0  0  0  0  0  0  0
    1.6501    5.7155    2.7563 C   0  0  0  0  0  0  0  0  0  0  0  0
    3.0022    6.0573    3.2211 N   0  0  0  0  0  0  0  0  0  0  0  0
    3.2055    7.2165    4.1019 C   0  0  0  0  0  0  0  0  0  0  0  0
    3.9080    8.3070    3.6321 C   0  0  0  0  0  0  0  0  0  0  0  0
    4.0074    9.4735    4.3794 C   0  0  0  0  0  0  0  0  0  0  0  0
    3.3828    9.5342    5.6240 C   0  0  0  0  0  0  0  0  0  0  0  0
    2.6786    8.4412    6.0928 C   0  0  0  0  0  0  0  0  0  0  0  0
    1.8643    8.5203    7.6175 Cl  0  0  0  0  0  0  0  0  0  0  0  0
    2.6019    7.2976    5.3305 C   0  0  0  0  0  0  0  0  0  0  0  0
    1.8941    6.2445    5.7876 F   0  0  0  0  0  0  0  0  0  0  0  0
    1.4761    4.5884    1.9036 C   0  0  0  0  0  0  0  0  0  0  0  0
    2.5282    3.7403    1.4892 C   0  0  0  0  0  0  0  0  0  0  0  0
    2.2642    2.6806    0.6691 C   0  0  0  0  0  0  0  0  0  0  0  0
    3.3941    1.7604    0.2369 C   0  0  0  0  0  0  0  0  0  0  0  0
    4.4053    2.5366   -0.4953 N   0  0  0  0  0  0  0  0  0  0  0  0
    5.4981    1.6466   -0.9133 C   0  0  0  0  0  0  0  0  0  0  0  0
    4.9457    0.5553   -1.8156 C   0  0  0  0  0  0  0  0  0  0  0  0
    4.3299    1.1659   -3.0026 N   0  0  0  0  0  0  0  0  0  0  0  0
    3.7957    0.1104   -3.8752 C   0  0  0  0  0  0  0  0  0  0  0  0
    3.2371    2.0558   -2.5846 C   0  0  0  0  0  0  0  0  0  0  0  0
    3.7894    3.1472   -1.6822 C   0  0  0  0  0  0  0  0  0  0  0  0
    3.2371    2.0558   -2.5846 C   0  0  0  0  0  0  0  0  0  0  0  0
    2.6594    4.0674   -1.2500 C   0  0  0  0  0  0  0  0  0  0  0  0
    2.7072    5.4977   -1.5856 N   0  0  0  0  0  0  0  0  0  0  0  0
    1.6733    3.6001   -0.5985 O   0  0  0  0  0  0  0  0  0  0  0  0
    0.7256   -0.7690   -0.7158 H   0  0  0  0  0  0  0  0  0  0  0  0
    0.7256   -0.1944    0.9343 H   0  0  0  0  0  0  0  0  0  0  0  0
    2.1523   -0.0053   -0.0566 H   0  0  0  0  0  0  0  0  0  0  0  0
   -1.0675    3.0627    0.2321 H   0  0  0  0  0  0  0  0  0  0  0  0
   -1.4175    6.7315    2.9855 H   0  0  0  0  0  0  0  0  0  0  0  0
    3.7993    5.4902    2.9324 H   0  0  0  0  0  0  0  0  0  0  0  0
    4.3846    8.2532    2.6756 H   0  0  0  0  0  0  0  0  0  0  0  0
    4.5551   10.3131    4.0052 H   0  0  0  0  0  0  0  0  0  0  0  0
    3.4484   10.4240    6.2147 H   0  0  0  0  0  0  0  0  0  0  0  0
    3.5292    3.9281    1.8172 H   0  0  0  0  0  0  0  0  0  0  0  0
    3.8424    1.3160    1.1009 H   0  0  0  0  0  0  0  0  0  0  0  0
    3.0053    0.9922   -0.3983 H   0  0  0  0  0  0  0  0  0  0  0  0
    6.2340    2.2116   -1.4462 H   0  0  0  0  0  0  0  0  0  0  0  0
    5.9463    1.2022   -0.0493 H   0  0  0  0  0  0  0  0  0  0  0  0
    5.7412   -0.0925   -2.1199 H   0  0  0  0  0  0  0  0  0  0  0  0
    4.2097   -0.0097   -1.2827 H   0  0  0  0  0  0  0  0  0  0  0  0
    3.0597   -0.4545   -3.3423 H   0  0  0  0  0  0  0  0  0  0  0  0
    3.3474    0.5549   -4.7392 H   0  0  0  0  0  0  0  0  0  0  0  0
    4.5911   -0.5374   -4.1795 H   0  0  0  0  0  0  0  0  0  0  0  0
    2.5011    1.4909   -2.0516 H   0  0  0  0  0  0  0  0  0  0  0  0
    3.6259    2.8241   -1.9494 H   0  0  0  0  0  0  0  0  0  0  0  0
    2.7888    2.5003   -3.4485 H   0  0  0  0  0  0  0  0  0  0  0  0
    4.5254    3.7121   -2.2152 H   0  0  0  0  0  0  0  0  0  0  0  0
    2.5011    1.4909   -2.0516 H   0  0  0  0  0  0  0  0  0  0  0  0
    2.7888    2.5003   -3.4485 H   0  0  0  0  0  0  0  0  0  0  0  0
    4.0325    1.4080   -2.8888 H   0  0  0  0  0  0  0  0  0  0  0  0
    1.9489    6.1152   -1.2956 H   0  0  0  0  0  0  0  0  0  0  0  0
    3.4986    5.8727   -2.1085 H   0  0  0  0  0  0  0  0  0  0  0  0
  1  2  1  0  0  0  0
  1 34  1  0  0  0  0
  1 35  1  0  0  0  0
  1 36  1  0  0  0  0
  2  3  1  0  0  0  0
  3  4  1  0  0  0  0
  3 21  2  0  0  0  0
  4  5  2  0  0  0  0
  4 37  1  0  0  0  0
  5  6  1  0  0  0  0
  5 19  1  0  0  0  0
  6  7  2  0  0  0  0
  7  8  1  0  0  0  0
  7 38  1  0  0  0  0
  8  9  2  0  0  0  0
  9 10  1  0  0  0  0
  9 19  1  0  0  0  0
 10 11  1  0  0  0  0
 10 39  1  0  0  0  0
 11 12  1  0  0  0  0
 11 17  2  0  0  0  0
 12 13  2  0  0  0  0
 12 40  1  0  0  0  0
 13 14  1  0  0  0  0
 13 41  1  0  0  0  0
 14 15  2  0  0  0  0
 14 42  1  0  0  0  0
 15 16  1  0  0  0  0
 15 17  1  0  0  0  0
 17 18  1  0  0  0  0
 19 20  2  0  0  0  0
 20 21  1  0  0  0  0
 20 43  1  0  0  0  0
 21 22  1  0  0  0  0
 22 23  1  0  0  0  0
 22 44  1  0  0  0  0
 22 45  1  0  0  0  0
 23 24  1  0  0  0  0
 23 29  1  0  0  0  0
 24 25  1  0  0  0  0
 24 46  1  0  0  0  0
 24 47  1  0  0  0  0
 25 26  1  0  0  0  0
 25 48  1  0  0  0  0
 25 49  1  0  0  0  0
 26 27  1  0  0  0  0
 26 28  1  0  0  0  0
 27 50  1  0  0  0  0
 27 51  1  0  0  0  0
 27 52  1  0  0  0  0
 28 53  1  0  0  0  0
 28 54  1  0  0  0  0
 28 55  1  0  0  0  0
 29 30  1  0  0  0  0
 29 31  1  0  0  0  0
 29 56  1  0  0  0  0
 30 57  1  0  0  0  0
 30 58  1  0  0  0  0
 30 59  1  0  0  0  0
 31 32  1  0  0  0  0
 31 33  2  0  0  0  0
 32 60  1  0  0  0  0
 32 61  1  0  0  0  0
M  END
