REMARK  Name = 
REMARK  9 active torsions:
REMARK  status: ('A' for Active; 'I' for Inactive)
REMARK    1  A    between atoms: C_1  and  C_2
REMARK    2  A    between atoms: C_2  and  N_3
REMARK    3  A    between atoms: C_5  and  C_6
REMARK    4  A    between atoms: C_15  and  C_16
REMARK    5  A    between atoms: C_20  and  N_21
REMARK    6  A    between atoms: N_24  and  C_25
REMARK    7  A    between atoms: C_28  and  O_29
REMARK    8  A    between atoms: O_29  and  C_30
REMARK    9  A    between atoms: C_30  and  C_31
REMARK                            x       y       z     vdW  Elec       q    Type
REMARK                         _______ _______ _______ _____ _____    ______ ____
ROOT
ATOM      1  C   UNL     1       0.918  -4.733  -2.665  0.00  0.00    +0.000 A 
ATOM      2  C   UNL     1       2.020  -5.561  -2.527  0.00  0.00    +0.000 A 
ATOM      3  C   UNL     1       1.746  -6.927  -2.779  0.00  0.00    +0.000 A 
ATOM      4  C   UNL     1       0.537  -7.459  -2.786  0.00  0.00    +0.000 A 
ATOM      5  C   UNL     1      -0.512  -6.585  -2.854  0.00  0.00    +0.000 A 
ATOM      6  C   UNL     1      -0.310  -5.230  -2.747  0.00  0.00    +0.000 A 
ENDROOT
BRANCH   5   7
ATOM      7  N   UNL     1      -1.875  -7.102  -3.044  0.00  0.00    +0.000 N 
ATOM      8  C   UNL     1      -2.102  -8.550  -3.159  0.00  0.00    +0.000 C 
ATOM      9  O   UNL     1      -3.280  -8.997  -3.323  0.00  0.00    +0.000 OA
ATOM     10  N   UNL     1      -0.966  -9.480  -3.084  0.00  0.00    +0.000 N 
ATOM     11  H   UNL     1      -2.663  -6.456  -3.096  0.00  0.00    +0.000 HD
ATOM     12  H   UNL     1      -1.124 -10.485  -3.164  0.00  0.00    +0.000 HD
BRANCH  10  13
ATOM     13  C   UNL     1       0.397  -8.963  -2.894  0.00  0.00    +0.000 A 
ATOM     14  C   UNL     1       1.430  -9.469  -3.665  0.00  0.00    +0.000 A 
ATOM     15  C   UNL     1       2.719  -9.116  -3.199  0.00  0.00    +0.000 A 
ATOM     16  C   UNL     1       2.967  -8.129  -2.358  0.00  0.00    +0.000 A 
ATOM     17  C   UNL     1       1.893  -7.627  -1.676  0.00  0.00    +0.000 A 
ATOM     18  C   UNL     1       0.613  -8.019  -1.986  0.00  0.00    +0.000 A 
BRANCH  16  19
ATOM     19  O   UNL     1       4.278  -7.617  -2.171  0.00  0.00    +0.000 OA
BRANCH  19  20
ATOM     20  C   UNL     1       4.501  -6.554  -1.256  0.00  0.00    +0.000 C 
BRANCH  20  21
ATOM     21  C   UNL     1       3.690  -5.341  -1.681  0.00  0.00    +0.000 A 
ATOM     22  C   UNL     1       4.324  -4.110  -1.641  0.00  0.00    +0.000 A 
ATOM     23  C   UNL     1       3.447  -3.009  -1.784  0.00  0.00    +0.000 A 
ATOM     24  C   UNL     1       2.220  -3.086  -2.267  0.00  0.00    +0.000 A 
ATOM     25  C   UNL     1       1.675  -4.337  -2.344  0.00  0.00    +0.000 A 
ATOM     26  C   UNL     1       2.433  -5.455  -2.092  0.00  0.00    +0.000 A 
ENDBRANCH  20  21
ENDBRANCH  19  20
ENDBRANCH  16  19
ENDBRANCH  10  13
ENDBRANCH   5   7
BRANCH   1  30
ATOM     27  N   UNL     1       1.080  -1.189  -2.135  0.00  0.00    +0.000 N 
ATOM     28  C   UNL     1       1.840  -1.281  -3.254  0.00  0.00    +0.000 A 
ATOM     29  C   UNL     1       1.870  -2.597  -3.576  0.00  0.00    +0.000 A 
ATOM     30  C   UNL     1       1.156  -3.232  -2.687  0.00  0.00    +0.000 A 
ATOM     31  N   UNL     1       0.683  -2.394  -1.834  0.00  0.00    +0.000 NA
BRANCH  29  32
ATOM     32  C   UNL     1       2.602  -3.219  -4.754  0.00  0.00    +0.000 A 
ATOM     33  C   UNL     1       3.355  -2.386  -5.655  0.00  0.00    +0.000 A 
ATOM     34  C   UNL     1       3.415  -0.963  -5.440  0.00  0.00    +0.000 A 
ATOM     35  N   UNL     1       4.143  -0.157  -6.312  0.00  0.00    +0.000 NA
ATOM     36  C   UNL     1       4.776  -0.695  -7.332  0.00  0.00    +0.000 A 
ATOM     37  N   UNL     1       5.526  -0.072  -8.273  0.00  0.00    +0.000 N 
ATOM     38  C   UNL     1       5.861  -1.028  -9.174  0.00  0.00    +0.000 A 
ATOM     39  C   UNL     1       5.324  -2.147  -8.773  0.00  0.00    +0.000 A 
ATOM     40  C   UNL     1       4.675  -1.949  -7.681  0.00  0.00    +0.000 A 
ATOM     41  H   UNL     1       5.785   0.914  -8.299  0.00  0.00    +0.000 HD
ENDBRANCH  29  32
BRANCH  27  43
ATOM     42  C   UNL     1       1.097  -0.022   0.010  0.00  0.00    +0.000 C 
ATOM     43  C   UNL     1       0.590   0.001  -1.423  0.00  0.00    +0.000 C 
ENDBRANCH  27  43
ENDBRANCH   1  30
TORSDOF 8
