REMARK  Name = 
REMARK  7 active torsions:
REMARK  status: ('A' for Active; 'I' for Inactive)
REMARK    1  A    between atoms: C_2  and  O_3
REMARK    2  A    between atoms: C_2  and  C_4
REMARK    3  A    between atoms: C_11  and  O_12
REMARK    4  A    between atoms: O_12  and  C_13
REMARK    5  A    between atoms: C_13  and  C_14
REMARK    6  A    between atoms: N_23  and  C_24
REMARK    7  A    between atoms: C_24  and  C_25
REMARK                            x       y       z     vdW  Elec       q    Type
REMARK                         _______ _______ _______ _____ _____    ______ ____
ROOT
ATOM      1  C   UNL     1       3.088  -0.959   1.017  0.00  0.00    +0.000 C 
ATOM      2  C   UNL     1       2.181  -2.179   1.200  0.00  0.00    +0.000 C 
ATOM      3  C   UNL     1       2.922  -3.245   2.016  0.00  0.00    +0.000 C 
ATOM      4  C   UNL     1       3.494  -2.589   3.248  0.00  0.00    +0.000 A 
ATOM      5  C   UNL     1       3.638  -1.255   3.408  0.00  0.00    +0.000 A 
ATOM      6  C   UNL     1       4.187  -0.999   4.633  0.00  0.00    +0.000 A 
ATOM      7  C   UNL     1       4.524   0.174   5.250  0.00  0.00    +0.000 A 
ATOM      8  C   UNL     1       5.062   0.175   6.489  0.00  0.00    +0.000 A 
ATOM      9  C   UNL     1       5.286  -1.031   7.166  0.00  0.00    +0.000 A 
ATOM     10  C   UNL     1       4.955  -2.212   6.562  0.00  0.00    +0.000 A 
ATOM     11  C   UNL     1       4.398  -2.194   5.279  0.00  0.00    +0.000 A 
ATOM     12  N   UNL     1       3.963  -3.223   4.417  0.00  0.00    +0.000 N 
ATOM     13  C   UNL     1       3.245  -0.236   2.362  0.00  0.00    +0.000 C 
ENDROOT
BRANCH   1  15
ATOM     14  O   UNL     1       1.058  -0.062   0.054  0.00  0.00    +0.000 OA
ATOM     15  C   UNL     1       2.329  -0.062   0.054  0.00  0.00    +0.000 C 
BRANCH  15  16
ATOM     16  O   UNL     1       3.038   0.777  -0.846  0.00  0.00    +0.000 OA
ATOM     17  H   UNL     1       4.038   0.777  -0.846  0.00  0.00    +0.000 HD
ENDBRANCH  15  16
ENDBRANCH   1  15
BRANCH   8  18
ATOM     18  O   UNL     1       5.402   1.407   7.109  0.00  0.00    +0.000 OA
BRANCH  18  19
ATOM     19  C   UNL     1       5.968   1.413   8.412  0.00  0.00    +0.000 C 
BRANCH  19  20
ATOM     20  C   UNL     1       5.000   0.765   9.388  0.00  0.00    +0.000 A 
ATOM     21  C   UNL     1       5.164  -0.616   9.687  0.00  0.00    +0.000 A 
ATOM     22  C   UNL     1       4.159  -1.291  10.399  0.00  0.00    +0.000 A 
ATOM     23  C   UNL     1       3.231  -0.617  11.011  0.00  0.00    +0.000 A 
ATOM     24  C   UNL     1       3.237   0.783  10.971  0.00  0.00    +0.000 A 
ATOM     25  C   UNL     1       4.049   1.452  10.023  0.00  0.00    +0.000 A 
ENDBRANCH  19  20
ENDBRANCH  18  19
ENDBRANCH   8  18
BRANCH  12  26
ATOM     26  C   UNL     1       3.992  -4.668   4.685  0.00  0.00    +0.000 C 
BRANCH  26  27
ATOM     27  C   UNL     1       2.578  -5.223   4.625  0.00  0.00    +0.000 A 
ATOM     28  C   UNL     1       1.807  -5.119   3.434  0.00  0.00    +0.000 A 
ATOM     29  C   UNL     1       0.425  -5.362   3.485  0.00  0.00    +0.000 A 
ATOM     30  C   UNL     1      -0.097  -5.936   4.529  0.00  0.00    +0.000 A 
ATOM     31 CL   UNL     1      -1.851  -6.230   4.597  0.00  0.00    +0.000 Cl
ATOM     32  C   UNL     1       0.720  -6.323   5.599  0.00  0.00    +0.000 A 
ATOM     33  C   UNL     1       2.039  -5.818   5.691  0.00  0.00    +0.000 A 
ENDBRANCH  26  27
ENDBRANCH  12  26
TORSDOF 7
