
 OpenBabel03132514253D

 57 59  0  0  0  0  0  0  0  0999 V2000
    0.9627   -0.0916    0.0148 C   0  0  0  0  0  0  0  0  0  0  0  0
    0.4893    0.7847    1.0270 O   0  0  0  0  0  0  0  0  0  0  0  0
    0.9627    0.3463    2.2920 C   0  0  0  0  0  0  0  0  0  0  0  0
    0.4560   -1.0610    2.5626 C   0  0  0  0  0  0  0  0  0  0  0  0
    0.9460   -1.9682    1.5148 N   0  0  0  0  0  0  0  0  0  0  0  0
    0.4560   -3.3292    1.7764 C   0  0  0  0  0  0  0  0  0  0  0  0
   -1.0640   -3.3292    1.7764 C   0  0  0  0  0  0  0  0  0  0  0  0
   -1.7424   -2.1439    1.7763 C   0  0  0  0  0  0  0  0  0  0  0  0
   -3.1558   -2.1422    1.7909 C   0  0  0  0  0  0  0  0  0  0  0  0
   -3.9512   -0.9612    1.7927 C   0  0  0  0  0  0  0  0  0  0  0  0
   -3.2852    0.3484    1.7441 N   0  0  0  0  0  0  0  0  0  0  0  0
   -4.0863    1.5809    1.7450 C   0  0  0  0  0  0  0  0  0  0  0  0
   -4.0044    2.4720    0.6948 C   0  0  0  0  0  0  0  0  0  0  0  0
   -4.7577    3.6388    0.6826 C   0  0  0  0  0  0  0  0  0  0  0  0
   -5.6085    3.9053    1.7541 C   0  0  0  0  0  0  0  0  0  0  0  0
   -5.6901    3.0112    2.8049 C   0  0  0  0  0  0  0  0  0  0  0  0
   -6.7742    3.3114    4.1197 Cl  0  0  0  0  0  0  0  0  0  0  0  0
   -4.9275    1.8653    2.7899 C   0  0  0  0  0  0  0  0  0  0  0  0
   -5.0308    0.9890    3.8098 F   0  0  0  0  0  0  0  0  0  0  0  0
   -5.2608   -1.0084    1.8366 N   0  0  0  0  0  0  0  0  0  0  0  0
   -5.8430   -2.2469    1.8568 C   0  0  0  0  0  0  0  0  0  0  0  0
   -5.2328   -3.3998    1.8351 N   0  0  0  0  0  0  0  0  0  0  0  0
   -3.8618   -3.3662    1.8042 C   0  0  0  0  0  0  0  0  0  0  0  0
   -3.1304   -4.5747    1.7764 C   0  0  0  0  0  0  0  0  0  0  0  0
   -1.7635   -4.5512    1.7766 C   0  0  0  0  0  0  0  0  0  0  0  0
   -1.0406   -5.7735    1.7769 O   0  0  0  0  0  0  0  0  0  0  0  0
    0.3793   -5.7587    1.7771 C   0  0  0  0  0  0  0  0  0  0  0  0
    0.4560   -1.5143    0.2053 C   0  0  0  0  0  0  0  0  0  0  0  0
   -1.0640   -1.5143    0.2053 C   0  0  0  0  0  0  0  0  0  0  0  0
    0.9627   -0.1070   -0.0653 C   0  0  0  0  0  0  0  0  0  0  0  0
    1.8078    0.1570   -1.2388 N   0  0  0  0  0  0  0  0  0  0  0  0
    0.6556    0.8415    0.7229 O   0  0  0  0  0  0  0  0  0  0  0  0
    0.6060    0.2388   -0.9383 H   0  0  0  0  0  0  0  0  0  0  0  0
    0.6060   -1.0822    0.2053 H   0  0  0  0  0  0  0  0  0  0  0  0
    2.0327   -0.0916    0.0148 H   0  0  0  0  0  0  0  0  0  0  0  0
    2.0327    0.3463    2.2920 H   0  0  0  0  0  0  0  0  0  0  0  0
    0.6060    1.0066    3.0547 H   0  0  0  0  0  0  0  0  0  0  0  0
    0.8127   -1.3914    3.5157 H   0  0  0  0  0  0  0  0  0  0  0  0
   -0.6140   -1.0610    2.5626 H   0  0  0  0  0  0  0  0  0  0  0  0
    0.8127   -3.9894    1.0137 H   0  0  0  0  0  0  0  0  0  0  0  0
    0.8127   -3.6595    2.7296 H   0  0  0  0  0  0  0  0  0  0  0  0
   -1.2052   -1.2186    1.7652 H   0  0  0  0  0  0  0  0  0  0  0  0
   -2.2672    0.4018    1.7096 H   0  0  0  0  0  0  0  0  0  0  0  0
   -3.3493    2.2604   -0.1243 H   0  0  0  0  0  0  0  0  0  0  0  0
   -4.6860    4.3229   -0.1370 H   0  0  0  0  0  0  0  0  0  0  0  0
   -6.1965    4.7992    1.7630 H   0  0  0  0  0  0  0  0  0  0  0  0
   -6.9120   -2.2723    1.8944 H   0  0  0  0  0  0  0  0  0  0  0  0
   -3.6478   -5.5110    1.7552 H   0  0  0  0  0  0  0  0  0  0  0  0
    0.7308   -5.2507    0.9034 H   0  0  0  0  0  0  0  0  0  0  0  0
    0.7305   -5.2504    2.6507 H   0  0  0  0  0  0  0  0  0  0  0  0
    0.7465   -6.7637    1.7773 H   0  0  0  0  0  0  0  0  0  0  0  0
    0.8127   -2.1746   -0.5574 H   0  0  0  0  0  0  0  0  0  0  0  0
   -1.4207   -0.8540    0.9679 H   0  0  0  0  0  0  0  0  0  0  0  0
   -1.4207   -1.1839   -0.7479 H   0  0  0  0  0  0  0  0  0  0  0  0
   -1.4207   -2.5049    0.3957 H   0  0  0  0  0  0  0  0  0  0  0  0
    2.1478    1.1014   -1.4204 H   0  0  0  0  0  0  0  0  0  0  0  0
    2.0542   -0.6042   -1.8714 H   0  0  0  0  0  0  0  0  0  0  0  0
  1  2  1  0  0  0  0
  1 33  1  0  0  0  0
  1 34  1  0  0  0  0
  1 35  1  0  0  0  0
  2  3  1  0  0  0  0
  3  4  1  0  0  0  0
  3 36  1  0  0  0  0
  3 37  1  0  0  0  0
  4  5  1  0  0  0  0
  4 38  1  0  0  0  0
  4 39  1  0  0  0  0
  5  6  1  0  0  0  0
  5 28  1  0  0  0  0
  6  7  1  0  0  0  0
  6 40  1  0  0  0  0
  6 41  1  0  0  0  0
  7  8  1  0  0  0  0
  7 25  2  0  0  0  0
  8  9  2  0  0  0  0
  8 42  1  0  0  0  0
  9 10  1  0  0  0  0
  9 23  1  0  0  0  0
 10 11  1  0  0  0  0
 10 20  2  0  0  0  0
 11 12  1  0  0  0  0
 11 43  1  0  0  0  0
 12 13  1  0  0  0  0
 12 18  2  0  0  0  0
 13 14  2  0  0  0  0
 13 44  1  0  0  0  0
 14 15  1  0  0  0  0
 14 45  1  0  0  0  0
 15 16  2  0  0  0  0
 15 46  1  0  0  0  0
 16 17  1  0  0  0  0
 16 18  1  0  0  0  0
 18 19  1  0  0  0  0
 20 21  1  0  0  0  0
 21 22  2  0  0  0  0
 21 47  1  0  0  0  0
 22 23  1  0  0  0  0
 23 24  2  0  0  0  0
 24 25  1  0  0  0  0
 24 48  1  0  0  0  0
 25 26  1  0  0  0  0
 26 27  1  0  0  0  0
 27 49  1  0  0  0  0
 27 50  1  0  0  0  0
 27 51  1  0  0  0  0
 28 29  1  0  0  0  0
 28 30  1  0  0  0  0
 28 52  1  0  0  0  0
 29 53  1  0  0  0  0
 29 54  1  0  0  0  0
 29 55  1  0  0  0  0
 30 31  1  0  0  0  0
 30 32  2  0  0  0  0
 31 56  1  0  0  0  0
 31 57  1  0  0  0  0
M  END
