REMARK  Name = 
REMARK  3 active torsions:
REMARK  status: ('A' for Active; 'I' for Inactive)
REMARK    1  A    between atoms: C_5  and  C_6
REMARK    2  A    between atoms: C_6  and  N_7
REMARK    3  A    between atoms: C_12  and  C_13
REMARK                            x       y       z     vdW  Elec       q    Type
REMARK                         _______ _______ _______ _____ _____    ______ ____
ROOT
ATOM      1  N   UNL     1       4.389  -0.678   1.268  0.00  0.00    +0.000 N 
ATOM      2  C   UNL     1       5.242  -1.870   1.155  0.00  0.00    +0.000 A 
ATOM      3  N   UNL     1       4.926  -2.910   1.937  0.00  0.00    +0.000 NA
ATOM      4  C   UNL     1       5.720  -3.978   1.771  0.00  0.00    +0.000 A 
ATOM      5  C   UNL     1       6.775  -4.018   0.915  0.00  0.00    +0.000 A 
ATOM      6  C   UNL     1       7.021  -2.876   0.189  0.00  0.00    +0.000 A 
ATOM      7  N   UNL     1       6.258  -1.794   0.275  0.00  0.00    +0.000 NA
ATOM      8  H   UNL     1       4.119  -0.329   2.187  0.00  0.00    +0.000 HD
ENDROOT
BRANCH   6   9
ATOM      9  C   UNL     1       8.215  -2.854  -0.751  0.00  0.00    +0.000 A 
ATOM     10  C   UNL     1       9.233  -2.020  -0.684  0.00  0.00    +0.000 A 
ATOM     11  N   UNL     1      10.101  -2.269  -1.653  0.00  0.00    +0.000 NA
ATOM     12  N   UNL     1       9.649  -3.292  -2.378  0.00  0.00    +0.000 N 
ATOM     13  N   UNL     1      10.116  -3.997  -3.508  0.00  0.00    +0.000 NA
ATOM     14  C   UNL     1       9.382  -5.018  -4.001  0.00  0.00    +0.000 A 
ATOM     15  C   UNL     1       8.198  -5.380  -3.439  0.00  0.00    +0.000 A 
ATOM     16  C   UNL     1       7.704  -4.744  -2.353  0.00  0.00    +0.000 A 
ATOM     17  C   UNL     1       8.412  -3.680  -1.791  0.00  0.00    +0.000 A 
ENDBRANCH   6   9
BRANCH   1  18
ATOM     18  C   UNL     1       3.926   0.011   0.054  0.00  0.00    +0.000 C 
BRANCH  18  23
ATOM     19 CL   UNL     1      -2.082   0.001   0.005  0.00  0.00    +0.000 Cl
ATOM     20  C   UNL     1      -0.345  -0.007   0.003  0.00  0.00    +0.000 A 
ATOM     21  C   UNL     1       0.329  -1.219  -0.019  0.00  0.00    +0.000 A 
ATOM     22  C   UNL     1       1.723  -1.199   0.002  0.00  0.00    +0.000 A 
ATOM     23  C   UNL     1       2.407   0.006   0.017  0.00  0.00    +0.000 A 
ATOM     24  C   UNL     1       1.712   1.210  -0.002  0.00  0.00    +0.000 A 
ATOM     25  C   UNL     1       0.321   1.207  -0.014  0.00  0.00    +0.000 A 
ENDBRANCH  18  23
ENDBRANCH   1  18
TORSDOF 3
