REMARK  Name = 
REMARK  9 active torsions:
REMARK  status: ('A' for Active; 'I' for Inactive)
REMARK    1  A    between atoms: C_1  and  O_2
REMARK    2  A    between atoms: O_2  and  C_3
REMARK    3  A    between atoms: N_6  and  C_7
REMARK    4  A    between atoms: N_6  and  C_8
REMARK    5  A    between atoms: C_8  and  C_9
REMARK    6  A    between atoms: C_9  and  O_10
REMARK    7  A    between atoms: C_13  and  C_14
REMARK    8  A    between atoms: C_17  and  C_18
REMARK    9  A    between atoms: C_18  and  O_20
REMARK                            x       y       z     vdW  Elec       q    Type
REMARK                         _______ _______ _______ _____ _____    ______ ____
ROOT
ATOM      1  C   UNL     1       3.128  -1.157   0.914  0.00  0.00    +0.000 A 
ATOM      2  C   UNL     1       3.311  -0.049   1.727  0.00  0.00    +0.000 A 
ATOM      3  C   UNL     1       4.228   0.943   1.334  0.00  0.00    +0.000 A 
ATOM      4  C   UNL     1       4.612   2.226   1.862  0.00  0.00    +0.000 A 
ATOM      5  C   UNL     1       5.480   2.775   0.947  0.00  0.00    +0.000 A 
ATOM      6  N   UNL     1       5.695   1.907  -0.090  0.00  0.00    +0.000 N 
ATOM      7  C   UNL     1       4.925   0.784   0.108  0.00  0.00    +0.000 A 
ATOM      8  C   UNL     1       4.757  -0.331  -0.720  0.00  0.00    +0.000 A 
ATOM      9  C   UNL     1       3.853  -1.279  -0.284  0.00  0.00    +0.000 A 
ATOM     10 CL   UNL     1       3.565  -2.685  -1.277  0.00  0.00    +0.000 Cl
ATOM     11  H   UNL     1       6.322   2.066  -0.879  0.00  0.00    +0.000 HD
ENDROOT
BRANCH   1  19
ATOM     12  C   UNL     1       0.793  -1.859   1.531  0.00  0.00    +0.000 A 
ATOM     13  N   UNL     1      -0.145  -2.723   1.933  0.00  0.00    +0.000 NA
ATOM     14  C   UNL     1       0.226  -3.996   2.137  0.00  0.00    +0.000 A 
ATOM     15  N   UNL     1      -0.787  -4.965   2.580  0.00  0.00    +0.000 N 
ATOM     16  C   UNL     1      -2.176  -4.531   2.790  0.00  0.00    +0.000 C 
ATOM     17  C   UNL     1       1.523  -4.432   1.948  0.00  0.00    +0.000 A 
ATOM     18  C   UNL     1       2.503  -3.520   1.549  0.00  0.00    +0.000 A 
ATOM     19  C   UNL     1       2.112  -2.203   1.343  0.00  0.00    +0.000 A 
BRANCH  12  21
ATOM     20  C   UNL     1       0.923   0.064   0.003  0.00  0.00    +0.000 C 
ATOM     21  O   UNL     1       0.450  -0.519   1.208  0.00  0.00    +0.000 OA
ENDBRANCH  12  21
BRANCH  15  22
ATOM     22  C   UNL     1      -0.412  -6.367   2.812  0.00  0.00    +0.000 C 
BRANCH  22  23
ATOM     23  C   UNL     1       0.131  -6.966   1.525  0.00  0.00    +0.000 C 
BRANCH  23  24
ATOM     24  O   UNL     1       1.273  -6.233   1.107  0.00  0.00    +0.000 OA
ATOM     25  H   UNL     1       1.018  -5.280   0.949  0.00  0.00    +0.000 HD
ENDBRANCH  23  24
ENDBRANCH  22  23
ENDBRANCH  15  22
ENDBRANCH   1  19
BRANCH   4  26
ATOM     26  C   UNL     1       4.151   2.850   3.169  0.00  0.00    +0.000 C 
ATOM     27  O   UNL     1       4.575   3.998   3.510  0.00  0.00    +0.000 OA
BRANCH  26  28
ATOM     28  O   UNL     1       3.245   2.150   4.009  0.00  0.00    +0.000 OA
ATOM     29  H   UNL     1       2.942   2.560   4.869  0.00  0.00    +0.000 HD
ENDBRANCH  26  28
ENDBRANCH   4  26
TORSDOF 7
