
 OpenBabel03132512083D

 34 37  0  0  0  0  0  0  0  0999 V2000
    0.9758    0.0704    0.0668 O   0  0  0  0  0  0  0  0  0  0  0  0
    2.2467    0.0704    0.0668 C   0  0  0  0  0  0  0  0  0  0  0  0
    2.9567   -1.1545    0.1765 O   0  0  0  0  0  0  0  0  0  0  0  0
    3.0067    1.3815   -0.0506 C   0  0  0  0  0  0  0  0  0  0  0  0
    4.0933    1.6298   -0.8570 C   0  0  0  0  0  0  0  0  0  0  0  0
    4.4925    2.9341   -0.7345 N   0  0  0  0  0  0  0  0  0  0  0  0
    3.6952    3.5532    0.2005 C   0  0  0  0  0  0  0  0  0  0  0  0
    3.7764    4.8539    0.7094 C   0  0  0  0  0  0  0  0  0  0  0  0
    2.8716    5.1731    1.7022 C   0  0  0  0  0  0  0  0  0  0  0  0
    2.9285    6.7676    2.4101 Cl  0  0  0  0  0  0  0  0  0  0  0  0
    1.9180    4.2653    2.1954 C   0  0  0  0  0  0  0  0  0  0  0  0
    0.9642    4.6910    3.2997 C   0  0  0  0  0  0  0  0  0  0  0  0
    0.1102    5.7459    3.0989 C   0  0  0  0  0  0  0  0  0  0  0  0
   -0.8082    6.1449    4.0729 C   0  0  0  0  0  0  0  0  0  0  0  0
   -0.8033    5.4472    5.2779 C   0  0  0  0  0  0  0  0  0  0  0  0
    0.0802    4.3735    5.4512 C   0  0  0  0  0  0  0  0  0  0  0  0
    0.9549    3.9516    4.4874 C   0  0  0  0  0  0  0  0  0  0  0  0
   -0.0071    3.8134    6.7143 O   0  0  0  0  0  0  0  0  0  0  0  0
   -0.7496    4.7577    7.5389 C   0  0  0  0  0  0  0  0  0  0  0  0
   -1.6159    5.6494    6.5502 C   0  0  0  0  0  0  0  0  0  0  0  0
    1.8470    2.9827    1.6755 C   0  0  0  0  0  0  0  0  0  0  0  0
    2.7387    2.6084    0.6544 C   0  0  0  0  0  0  0  0  0  0  0  0
    3.9567   -1.1545    0.1765 H   0  0  0  0  0  0  0  0  0  0  0  0
    4.5610    0.9056   -1.4908 H   0  0  0  0  0  0  0  0  0  0  0  0
    5.2544    3.3737   -1.2508 H   0  0  0  0  0  0  0  0  0  0  0  0
    4.4966    5.5591    0.3505 H   0  0  0  0  0  0  0  0  0  0  0  0
    0.1488    6.2774    2.1710 H   0  0  0  0  0  0  0  0  0  0  0  0
   -1.4875    6.9533    3.9001 H   0  0  0  0  0  0  0  0  0  0  0  0
    1.5942    3.1061    4.6334 H   0  0  0  0  0  0  0  0  0  0  0  0
   -1.3743    4.2455    8.2407 H   0  0  0  0  0  0  0  0  0  0  0  0
   -0.0729    5.3738    8.0933 H   0  0  0  0  0  0  0  0  0  0  0  0
   -1.7572    6.6666    6.8505 H   0  0  0  0  0  0  0  0  0  0  0  0
   -2.6161    5.2827    6.4505 H   0  0  0  0  0  0  0  0  0  0  0  0
    1.1236    2.2866    2.0459 H   0  0  0  0  0  0  0  0  0  0  0  0
  1  2  2  0  0  0  0
  2  3  1  0  0  0  0
  2  4  1  0  0  0  0
  3 23  1  0  0  0  0
  4  5  2  0  0  0  0
  4 22  1  0  0  0  0
  5  6  1  0  0  0  0
  5 24  1  0  0  0  0
  6  7  1  0  0  0  0
  6 25  1  0  0  0  0
  7  8  1  0  0  0  0
  7 22  2  0  0  0  0
  8  9  2  0  0  0  0
  8 26  1  0  0  0  0
  9 10  1  0  0  0  0
  9 11  1  0  0  0  0
 11 12  1  0  0  0  0
 11 21  2  0  0  0  0
 12 13  1  0  0  0  0
 12 17  2  0  0  0  0
 13 14  2  0  0  0  0
 13 27  1  0  0  0  0
 14 15  1  0  0  0  0
 14 28  1  0  0  0  0
 15 16  2  0  0  0  0
 15 20  1  0  0  0  0
 16 17  1  0  0  0  0
 16 18  1  0  0  0  0
 17 29  1  0  0  0  0
 18 19  1  0  0  0  0
 19 20  1  0  0  0  0
 19 30  1  0  0  0  0
 19 31  1  0  0  0  0
 20 32  1  0  0  0  0
 20 33  1  0  0  0  0
 21 22  1  0  0  0  0
 21 34  1  0  0  0  0
M  END
