
 OpenBabel03132512083D

 64 69  0  0  0  0  0  0  0  0999 V2000
    0.9195    0.0587   -0.0089 C   0  0  0  0  0  0  0  0  0  0  0  0
    0.4295    1.3666   -0.4674 N   0  0  0  0  0  0  0  0  0  0  0  0
   -1.3305    1.3666   -0.4674 S   0  0  0  0  0  0  0  0  0  0  0  0
   -1.9338    1.0503    1.2096 C   0  0  0  0  0  0  0  0  0  0  0  0
   -1.8406    2.7283   -0.9447 O   0  0  0  0  0  0  0  0  0  0  0  0
   -1.8555    0.2404   -1.4354 N   0  0  0  0  0  0  0  0  0  0  0  0
   -3.3008    0.0367   -1.6105 C   0  0  0  0  0  0  0  0  0  0  0  0
   -3.8130   -1.2501   -1.5912 C   0  0  0  0  0  0  0  0  0  0  0  0
   -5.1462   -1.3435   -2.0557 C   0  0  0  0  0  0  0  0  0  0  0  0
   -5.9763   -0.3216   -2.1600 C   0  0  0  0  0  0  0  0  0  0  0  0
   -7.4732   -0.5203   -2.3338 C   0  0  0  0  0  0  0  0  0  0  0  0
   -8.1860   -1.2000   -1.3599 C   0  0  0  0  0  0  0  0  0  0  0  0
   -9.4900   -1.5753   -1.7609 C   0  0  0  0  0  0  0  0  0  0  0  0
  -10.1381   -1.0522   -2.7858 C   0  0  0  0  0  0  0  0  0  0  0  0
  -11.6359   -1.2380   -2.9655 C   0  0  0  0  0  0  0  0  0  0  0  0
  -12.5056   -0.7845   -1.9937 N   0  0  0  0  0  0  0  0  0  0  0  0
  -13.8821   -0.9644   -2.1596 C   0  0  0  0  0  0  0  0  0  0  0  0
  -15.0524   -0.6195   -1.3539 N   0  0  0  0  0  0  0  0  0  0  0  0
  -16.1108   -1.0257   -1.9920 C   0  0  0  0  0  0  0  0  0  0  0  0
  -17.4455   -0.8732   -1.5318 O   0  0  0  0  0  0  0  0  0  0  0  0
  -17.6993   -0.2367   -0.2881 C   0  0  0  0  0  0  0  0  0  0  0  0
  -17.2328    1.0225   -0.2919 C   0  0  0  0  0  0  0  0  0  0  0  0
  -15.8550    1.0353    0.1749 O   0  0  0  0  0  0  0  0  0  0  0  0
  -15.6689   -0.2369    1.0236 C   0  0  0  0  0  0  0  0  0  0  0  0
  -15.6357    0.1422    2.4895 C   0  0  0  0  0  0  0  0  0  0  0  0
  -14.9443    1.3677    2.6807 O   0  0  0  0  0  0  0  0  0  0  0  0
  -16.9288    0.2440    2.9033 C   0  0  0  0  0  0  0  0  0  0  0  0
  -17.7624   -0.6888    2.1604 O   0  0  0  0  0  0  0  0  0  0  0  0
  -17.0208   -0.9831    0.8427 C   0  0  0  0  0  0  0  0  0  0  0  0
  -15.7443   -1.6340   -3.1963 N   0  0  0  0  0  0  0  0  0  0  0  0
  -14.3697   -1.6037   -3.3131 C   0  0  0  0  0  0  0  0  0  0  0  0
  -13.4790   -2.0528   -4.2814 C   0  0  0  0  0  0  0  0  0  0  0  0
  -12.1256   -1.8663   -4.1108 C   0  0  0  0  0  0  0  0  0  0  0  0
  -10.9918   -2.4313   -5.3612 Cl  0  0  0  0  0  0  0  0  0  0  0  0
   -9.3892   -0.3343   -3.6765 C   0  0  0  0  0  0  0  0  0  0  0  0
   -8.0728   -0.0388   -3.4163 C   0  0  0  0  0  0  0  0  0  0  0  0
   -5.4167    0.9246   -2.1033 C   0  0  0  0  0  0  0  0  0  0  0  0
   -4.0906    1.0899   -1.7842 C   0  0  0  0  0  0  0  0  0  0  0  0
    0.5629   -0.7063   -0.6665 H   0  0  0  0  0  0  0  0  0  0  0  0
    0.5629   -0.1283    0.9824 H   0  0  0  0  0  0  0  0  0  0  0  0
    1.9895    0.0587   -0.0089 H   0  0  0  0  0  0  0  0  0  0  0  0
    0.7695    2.0959    0.1595 H   0  0  0  0  0  0  0  0  0  0  0  0
   -1.5771    1.8153    1.8672 H   0  0  0  0  0  0  0  0  0  0  0  0
   -3.0038    1.0503    1.2096 H   0  0  0  0  0  0  0  0  0  0  0  0
   -1.5771    0.0983    1.5433 H   0  0  0  0  0  0  0  0  0  0  0  0
   -3.2514   -2.0967   -1.2554 H   0  0  0  0  0  0  0  0  0  0  0  0
   -5.5070   -2.3092   -2.3424 H   0  0  0  0  0  0  0  0  0  0  0  0
   -7.7868   -1.4213   -0.3922 H   0  0  0  0  0  0  0  0  0  0  0  0
   -9.9855   -2.3359   -1.1944 H   0  0  0  0  0  0  0  0  0  0  0  0
  -18.7596   -0.2332   -0.1439 H   0  0  0  0  0  0  0  0  0  0  0  0
  -17.2738    1.4130   -1.2873 H   0  0  0  0  0  0  0  0  0  0  0  0
  -17.8335    1.6265    0.3556 H   0  0  0  0  0  0  0  0  0  0  0  0
  -14.7880   -0.7793    0.7502 H   0  0  0  0  0  0  0  0  0  0  0  0
  -15.1278   -0.6124    3.0530 H   0  0  0  0  0  0  0  0  0  0  0  0
  -15.4000    2.0919    2.1631 H   0  0  0  0  0  0  0  0  0  0  0  0
  -17.2762    1.2411    2.7301 H   0  0  0  0  0  0  0  0  0  0  0  0
  -16.9860    0.0167    3.9473 H   0  0  0  0  0  0  0  0  0  0  0  0
  -16.9670   -2.0322    0.6393 H   0  0  0  0  0  0  0  0  0  0  0  0
  -16.3885   -2.0351   -3.8779 H   0  0  0  0  0  0  0  0  0  0  0  0
  -13.8452   -2.5433   -5.1591 H   0  0  0  0  0  0  0  0  0  0  0  0
   -9.8347    0.0022   -4.5893 H   0  0  0  0  0  0  0  0  0  0  0  0
   -7.5259    0.5848   -4.0922 H   0  0  0  0  0  0  0  0  0  0  0  0
   -6.0203    1.7835   -2.3105 H   0  0  0  0  0  0  0  0  0  0  0  0
   -3.6906    2.0763   -1.6747 H   0  0  0  0  0  0  0  0  0  0  0  0
  1  2  1  0  0  0  0
  1 39  1  0  0  0  0
  1 40  1  0  0  0  0
  1 41  1  0  0  0  0
  2  3  1  0  0  0  0
  2 42  1  0  0  0  0
  3  4  1  0  0  0  0
  3  5  2  0  0  0  0
  3  6  2  0  0  0  0
  4 43  1  0  0  0  0
  4 44  1  0  0  0  0
  4 45  1  0  0  0  0
  6  7  1  0  0  0  0
  7  8  1  0  0  0  0
  7 38  2  0  0  0  0
  8  9  2  0  0  0  0
  8 46  1  0  0  0  0
  9 10  1  0  0  0  0
  9 47  1  0  0  0  0
 10 11  1  0  0  0  0
 10 37  2  0  0  0  0
 11 12  1  0  0  0  0
 11 36  2  0  0  0  0
 12 13  2  0  0  0  0
 12 48  1  0  0  0  0
 13 14  1  0  0  0  0
 13 49  1  0  0  0  0
 14 15  1  0  0  0  0
 14 35  2  0  0  0  0
 15 16  1  0  0  0  0
 15 33  2  0  0  0  0
 16 17  2  0  0  0  0
 17 18  1  0  0  0  0
 17 31  1  0  0  0  0
 18 19  2  0  0  0  0
 19 20  1  0  0  0  0
 19 30  1  0  0  0  0
 20 21  1  0  0  0  0
 21 22  1  0  0  0  0
 21 29  1  0  0  0  0
 21 50  1  0  0  0  0
 22 23  1  0  0  0  0
 22 51  1  0  0  0  0
 22 52  1  0  0  0  0
 23 24  1  0  0  0  0
 24 25  1  0  0  0  0
 24 29  1  0  0  0  0
 24 53  1  0  0  0  0
 25 26  1  0  0  0  0
 25 27  1  0  0  0  0
 25 54  1  0  0  0  0
 26 55  1  0  0  0  0
 27 28  1  0  0  0  0
 27 56  1  0  0  0  0
 27 57  1  0  0  0  0
 28 29  1  0  0  0  0
 29 58  1  0  0  0  0
 30 31  1  0  0  0  0
 30 59  1  0  0  0  0
 31 32  2  0  0  0  0
 32 33  1  0  0  0  0
 32 60  1  0  0  0  0
 33 34  1  0  0  0  0
 35 36  1  0  0  0  0
 35 61  1  0  0  0  0
 36 62  1  0  0  0  0
 37 38  1  0  0  0  0
 37 63  1  0  0  0  0
 38 64  1  0  0  0  0
M  END
