
 OpenBabel03132512093D

 56 59  0  0  0  0  0  0  0  0999 V2000
    0.9187    0.0583   -0.0018 C   0  0  0  0  0  0  0  0  0  0  0  0
    0.4454    1.1417   -0.7882 O   0  0  0  0  0  0  0  0  0  0  0  0
    0.7884    2.4749   -0.4399 C   0  0  0  0  0  0  0  0  0  0  0  0
   -0.2289    3.3871   -0.3969 C   0  0  0  0  0  0  0  0  0  0  0  0
    0.0195    4.7088    0.0362 C   0  0  0  0  0  0  0  0  0  0  0  0
   -1.0133    5.6088    0.1057 N   0  0  0  0  0  0  0  0  0  0  0  0
   -0.7112    6.8114    0.5111 C   0  0  0  0  0  0  0  0  0  0  0  0
    0.5289    7.2739    0.8597 N   0  0  0  0  0  0  0  0  0  0  0  0
    1.5281    6.4283    0.7846 C   0  0  0  0  0  0  0  0  0  0  0  0
    2.8814    6.8900    1.1253 N   0  0  0  0  0  0  0  0  0  0  0  0
    3.0996    8.2823    1.5432 C   0  0  0  0  0  0  0  0  0  0  0  0
    3.8679    9.1003    0.7406 C   0  0  0  0  0  0  0  0  0  0  0  0
    4.0285   10.4484    1.0337 C   0  0  0  0  0  0  0  0  0  0  0  0
    3.3984   10.9749    2.1601 C   0  0  0  0  0  0  0  0  0  0  0  0
    2.6283   10.1544    2.9625 C   0  0  0  0  0  0  0  0  0  0  0  0
    1.8076   10.8065    4.3392 Cl  0  0  0  0  0  0  0  0  0  0  0  0
    2.4917    8.8213    2.6479 C   0  0  0  0  0  0  0  0  0  0  0  0
    1.7205    8.0341    3.4253 F   0  0  0  0  0  0  0  0  0  0  0  0
    1.3396    5.0754    0.3822 C   0  0  0  0  0  0  0  0  0  0  0  0
    2.3774    4.1181    0.3156 C   0  0  0  0  0  0  0  0  0  0  0  0
    2.1000    2.8413   -0.0818 C   0  0  0  0  0  0  0  0  0  0  0  0
    3.2144    1.8091   -0.1380 C   0  0  0  0  0  0  0  0  0  0  0  0
    4.2521    2.2589   -1.0770 N   0  0  0  0  0  0  0  0  0  0  0  0
    5.3297    1.2606   -1.1314 C   0  0  0  0  0  0  0  0  0  0  0  0
    3.6654    2.4200   -2.4152 C   0  0  0  0  0  0  0  0  0  0  0  0
    4.9230    2.1310   -3.2187 C   0  0  0  0  0  0  0  0  0  0  0  0
    6.1818    1.8189   -2.5266 N   0  0  0  0  0  0  0  0  0  0  0  0
    4.8861    2.1594   -4.4887 O   0  0  0  0  0  0  0  0  0  0  0  0
    2.3561    1.6473   -2.6508 C   0  0  0  0  0  0  0  0  0  0  0  0
    1.8726    2.8667   -3.4522 N   0  0  0  0  0  0  0  0  0  0  0  0
    2.1792    2.8186   -4.8890 C   0  0  0  0  0  0  0  0  0  0  0  0
    2.8482    3.7097   -2.6145 C   0  0  0  0  0  0  0  0  0  0  0  0
    0.5621   -0.8631   -0.4125 H   0  0  0  0  0  0  0  0  0  0  0  0
    0.5621    0.1632    1.0015 H   0  0  0  0  0  0  0  0  0  0  0  0
    1.9887    0.0583   -0.0018 H   0  0  0  0  0  0  0  0  0  0  0  0
   -1.2163    3.0992   -0.6922 H   0  0  0  0  0  0  0  0  0  0  0  0
   -1.5185    7.5104    0.5783 H   0  0  0  0  0  0  0  0  0  0  0  0
    3.6692    6.2442    1.0718 H   0  0  0  0  0  0  0  0  0  0  0  0
    4.3483    8.6891   -0.1226 H   0  0  0  0  0  0  0  0  0  0  0  0
    4.6269   11.0734    0.4043 H   0  0  0  0  0  0  0  0  0  0  0  0
    3.5106   12.0110    2.4027 H   0  0  0  0  0  0  0  0  0  0  0  0
    3.3781    4.3932    0.5760 H   0  0  0  0  0  0  0  0  0  0  0  0
    3.6414    1.6918    0.8360 H   0  0  0  0  0  0  0  0  0  0  0  0
    2.8164    0.8723   -0.4681 H   0  0  0  0  0  0  0  0  0  0  0  0
    4.9318    0.3238   -1.4615 H   0  0  0  0  0  0  0  0  0  0  0  0
    6.0851    1.5880   -1.8149 H   0  0  0  0  0  0  0  0  0  0  0  0
    5.7567    1.1434   -0.1573 H   0  0  0  0  0  0  0  0  0  0  0  0
    7.0256    1.6250   -3.0658 H   0  0  0  0  0  0  0  0  0  0  0  0
    6.2113    1.7961   -1.5073 H   0  0  0  0  0  0  0  0  0  0  0  0
    2.3476    0.6596   -3.0622 H   0  0  0  0  0  0  0  0  0  0  0  0
    1.7922    1.4413   -1.7651 H   0  0  0  0  0  0  0  0  0  0  0  0
    3.2388    2.7591   -5.0258 H   0  0  0  0  0  0  0  0  0  0  0  0
    1.7146    1.9586   -5.3243 H   0  0  0  0  0  0  0  0  0  0  0  0
    1.8075    3.7030   -5.3628 H   0  0  0  0  0  0  0  0  0  0  0  0
    2.5183    4.3049   -1.7889 H   0  0  0  0  0  0  0  0  0  0  0  0
    3.3537    4.4810   -3.1572 H   0  0  0  0  0  0  0  0  0  0  0  0
  1  2  1  0  0  0  0
  1 33  1  0  0  0  0
  1 34  1  0  0  0  0
  1 35  1  0  0  0  0
  2  3  1  0  0  0  0
  3  4  1  0  0  0  0
  3 21  2  0  0  0  0
  4  5  2  0  0  0  0
  4 36  1  0  0  0  0
  5  6  1  0  0  0  0
  5 19  1  0  0  0  0
  6  7  2  0  0  0  0
  7  8  1  0  0  0  0
  7 37  1  0  0  0  0
  8  9  2  0  0  0  0
  9 10  1  0  0  0  0
  9 19  1  0  0  0  0
 10 11  1  0  0  0  0
 10 38  1  0  0  0  0
 11 12  1  0  0  0  0
 11 17  2  0  0  0  0
 12 13  2  0  0  0  0
 12 39  1  0  0  0  0
 13 14  1  0  0  0  0
 13 40  1  0  0  0  0
 14 15  2  0  0  0  0
 14 41  1  0  0  0  0
 15 16  1  0  0  0  0
 15 17  1  0  0  0  0
 17 18  1  0  0  0  0
 19 20  2  0  0  0  0
 20 21  1  0  0  0  0
 20 42  1  0  0  0  0
 21 22  1  0  0  0  0
 22 23  1  0  0  0  0
 22 43  1  0  0  0  0
 22 44  1  0  0  0  0
 23 24  1  0  0  0  0
 23 25  1  0  0  0  0
 24 45  1  0  0  0  0
 24 46  1  0  0  0  0
 24 47  1  0  0  0  0
 25 26  1  0  0  0  0
 25 29  1  0  0  0  0
 25 32  1  0  0  0  0
 26 27  1  0  0  0  0
 26 28  2  0  0  0  0
 27 48  1  0  0  0  0
 27 49  1  0  0  0  0
 29 30  1  0  0  0  0
 29 50  1  0  0  0  0
 29 51  1  0  0  0  0
 30 31  1  0  0  0  0
 30 32  1  0  0  0  0
 31 52  1  0  0  0  0
 31 53  1  0  0  0  0
 31 54  1  0  0  0  0
 32 55  1  0  0  0  0
 32 56  1  0  0  0  0
M  END
