REMARK  Name = 
REMARK  12 active torsions:
REMARK  status: ('A' for Active; 'I' for Inactive)
REMARK    1  A    between atoms: C_1  and  C_2
REMARK    2  A    between atoms: C_2  and  N_3
REMARK    3  A    between atoms: N_3  and  C_4
REMARK    4  A    between atoms: N_3  and  C_6
REMARK    5  A    between atoms: C_4  and  C_5
REMARK    6  A    between atoms: C_6  and  C_7
REMARK    7  A    between atoms: C_7  and  N_8
REMARK    8  A    between atoms: C_9  and  C_11
REMARK    9  A    between atoms: C_12  and  C_13
REMARK   10  A    between atoms: C_15  and  C_16
REMARK   11  A    between atoms: C_24  and  C_25
REMARK   12  A    between atoms: C_33  and  C_34
REMARK                            x       y       z     vdW  Elec       q    Type
REMARK                         _______ _______ _______ _____ _____    ______ ____
ROOT
ATOM      1  C   UNL     1       4.996   2.073  -1.497  0.00  0.00    +0.000 A 
ATOM      2  C   UNL     1       5.650   1.775  -2.666  0.00  0.00    +0.000 A 
ATOM      3  C   UNL     1       5.146   1.624  -4.060  0.00  0.00    +0.000 C 
ATOM      4  N   UNL     1       6.973   1.628  -2.368  0.00  0.00    +0.000 N 
ATOM      5  C   UNL     1       7.190   1.848  -1.029  0.00  0.00    +0.000 A 
ATOM      6  C   UNL     1       5.977   2.132  -0.453  0.00  0.00    +0.000 A 
ATOM      7  C   UNL     1       5.705   2.408   1.005  0.00  0.00    +0.000 C 
ATOM      8  H   UNL     1       7.698   1.388  -3.044  0.00  0.00    +0.000 HD
ENDROOT
BRANCH   5   9
ATOM      9  C   UNL     1       8.531   1.788  -0.316  0.00  0.00    +0.000 C 
ATOM     10  C   UNL     1       9.528   2.610  -0.688  0.00  0.00    +0.000 C 
ATOM     11  C   UNL     1       9.323   3.639  -1.752  0.00  0.00    +0.000 C 
ATOM     12  O   UNL     1       8.316   3.839  -2.433  0.00  0.00    +0.000 OA
ATOM     13  N   UNL     1      10.471   4.356  -1.837  0.00  0.00    +0.000 N 
ATOM     14  C   UNL     1      11.432   3.886  -0.935  0.00  0.00    +0.000 A 
ATOM     15  C   UNL     1      12.705   4.376  -0.762  0.00  0.00    +0.000 A 
ATOM     16  C   UNL     1      13.520   3.730   0.161  0.00  0.00    +0.000 A 
ATOM     17  C   UNL     1      13.044   2.618   0.841  0.00  0.00    +0.000 A 
ATOM     18  C   UNL     1      11.746   2.156   0.665  0.00  0.00    +0.000 A 
ATOM     19  C   UNL     1      10.903   2.808  -0.226  0.00  0.00    +0.000 A 
ATOM     20  H   UNL     1      10.615   5.137  -2.477  0.00  0.00    +0.000 HD
BRANCH  17  21
ATOM     21  C   UNL     1      13.967   1.887   1.803  0.00  0.00    +0.000 A 
ATOM     22  C   UNL     1      14.308   0.542   1.638  0.00  0.00    +0.000 A 
ATOM     23  C   UNL     1      15.249   0.005   2.507  0.00  0.00    +0.000 A 
ATOM     24  C   UNL     1      15.803   0.810   3.475  0.00  0.00    +0.000 A 
ATOM     25  N   UNL     1      15.465   2.091   3.651  0.00  0.00    +0.000 NA
ATOM     26  C   UNL     1      14.554   2.617   2.817  0.00  0.00    +0.000 A 
ENDBRANCH  17  21
ENDBRANCH   5   9
BRANCH   1  28
ATOM     27  N   UNL     1       2.546   1.387  -1.981  0.00  0.00    +0.000 N 
ATOM     28  C   UNL     1       3.502   2.300  -1.336  0.00  0.00    +0.000 C 
ATOM     29  O   UNL     1       3.078   3.279  -0.645  0.00  0.00    +0.000 OA
ATOM     30  H   UNL     1       1.544   1.540  -1.873  0.00  0.00    +0.000 HD
BRANCH  27  31
ATOM     31  C   UNL     1       3.036   0.255  -2.780  0.00  0.00    +0.000 C 
BRANCH  31  32
ATOM     32  C   UNL     1       2.530  -1.046  -2.179  0.00  0.00    +0.000 C 
BRANCH  32  33
ATOM     33  N   UNL     1       1.060  -1.046  -2.179  0.00  0.00    +0.000 NA
BRANCH  33  35
ATOM     34  C   UNL     1       1.076  -0.044   0.047  0.00  0.00    +0.000 C 
ATOM     35  C   UNL     1       0.570   0.086  -1.380  0.00  0.00    +0.000 C 
ENDBRANCH  33  35
BRANCH  33  36
ATOM     36  C   UNL     1       0.570  -0.920  -3.560  0.00  0.00    +0.000 C 
ATOM     37  C   UNL     1       1.076   0.381  -4.160  0.00  0.00    +0.000 C 
ENDBRANCH  33  36
ENDBRANCH  32  33
ENDBRANCH  31  32
ENDBRANCH  27  31
ENDBRANCH   1  28
TORSDOF 8
