REMARK  Name = 
REMARK  7 active torsions:
REMARK  status: ('A' for Active; 'I' for Inactive)
REMARK    1  A    between atoms: C_2  and  C_3
REMARK    2  A    between atoms: C_3  and  O_4
REMARK    3  A    between atoms: O_4  and  C_5
REMARK    4  A    between atoms: C_9  and  O_10
REMARK    5  A    between atoms: O_10  and  C_11
REMARK    6  A    between atoms: C_15  and  C_16
REMARK    7  A    between atoms: C_19  and  C_20
REMARK                            x       y       z     vdW  Elec       q    Type
REMARK                         _______ _______ _______ _____ _____    ______ ____
ROOT
ATOM      1  C   UNL     1      -1.864  -3.880  -2.706  0.00  0.00    +0.000 A 
ATOM      2  N   UNL     1      -0.567  -3.974  -2.675  0.00  0.00    +0.000 NA
ATOM      3  C   UNL     1      -0.023  -2.967  -3.585  0.00  0.00    +0.000 A 
ATOM      4  N   UNL     1       1.274  -2.601  -3.960  0.00  0.00    +0.000 NA
ATOM      5  C   UNL     1       1.458  -1.579  -4.870  0.00  0.00    +0.000 A 
ATOM      6  C   UNL     1       0.359  -0.910  -5.409  0.00  0.00    +0.000 A 
ATOM      7 CL   UNL     1       0.615   0.415  -6.569  0.00  0.00    +0.000 Cl
ATOM      8  C   UNL     1      -0.921  -1.266  -5.051  0.00  0.00    +0.000 A 
ATOM      9  C   UNL     1      -1.127  -2.293  -4.136  0.00  0.00    +0.000 A 
ATOM     10  N   UNL     1      -2.255  -2.866  -3.585  0.00  0.00    +0.000 N 
ATOM     11  H   UNL     1      -3.217  -2.593  -3.786  0.00  0.00    +0.000 HD
ENDROOT
BRANCH   5  12
ATOM     12  C   UNL     1       2.865  -1.182  -5.287  0.00  0.00    +0.000 A 
ATOM     13  C   UNL     1       3.697  -2.107  -5.885  0.00  0.00    +0.000 A 
ATOM     14  C   UNL     1       4.927  -1.777  -6.246  0.00  0.00    +0.000 A 
ATOM     15  C   UNL     1       5.401  -0.557  -6.055  0.00  0.00    +0.000 A 
ATOM     16  C   UNL     1       4.624   0.419  -5.462  0.00  0.00    +0.000 A 
ATOM     17  C   UNL     1       3.332   0.105  -5.066  0.00  0.00    +0.000 A 
BRANCH  15  18
ATOM     18  C   UNL     1       6.818  -0.225  -6.494  0.00  0.00    +0.000 A 
ATOM     19  C   UNL     1       7.183  -0.355  -7.819  0.00  0.00    +0.000 A 
ATOM     20  C   UNL     1       8.416  -0.075  -8.212  0.00  0.00    +0.000 A 
ATOM     21  C   UNL     1       9.337   0.344  -7.359  0.00  0.00    +0.000 A 
ATOM     22  C   UNL     1       9.041   0.497  -6.019  0.00  0.00    +0.000 A 
ATOM     23  C   UNL     1       7.760   0.206  -5.571  0.00  0.00    +0.000 A 
ENDBRANCH  15  18
ENDBRANCH   5  12
BRANCH   1  24
ATOM     24  O   UNL     1      -2.805  -4.704  -2.032  0.00  0.00    +0.000 OA
BRANCH  24  29
ATOM     25  C   UNL     1      -1.266  -2.259   1.228  0.00  0.00    +0.000 C 
ATOM     26  C   UNL     1      -1.078  -1.989  -0.073  0.00  0.00    +0.000 C 
ATOM     27  O   UNL     1      -2.264  -2.364  -0.828  0.00  0.00    +0.000 OA
ATOM     28  C   UNL     1      -2.997  -3.428   0.012  0.00  0.00    +0.000 C 
ATOM     29  C   UNL     1      -2.787  -4.790  -0.615  0.00  0.00    +0.000 C 
ATOM     30  C   UNL     1      -1.585  -5.251  -0.171  0.00  0.00    +0.000 C 
ATOM     31  O   UNL     1      -1.326  -4.748   1.170  0.00  0.00    +0.000 OA
ATOM     32  C   UNL     1      -2.171  -3.470   1.328  0.00  0.00    +0.000 C 
BRANCH  25  33
ATOM     33  O   UNL     1      -1.739  -1.099   1.897  0.00  0.00    +0.000 OA
BRANCH  33  34
ATOM     34  C   UNL     1      -1.266   0.060   1.226  0.00  0.00    +0.000 C 
BRANCH  34  36
ATOM     35  C   UNL     1       0.935   0.059   0.048  0.00  0.00    +0.000 C 
ATOM     36  C   UNL     1       0.254   0.060   1.226  0.00  0.00    +0.000 C 
ENDBRANCH  34  36
ENDBRANCH  33  34
ENDBRANCH  25  33
ENDBRANCH  24  29
ENDBRANCH   1  24
TORSDOF 7
