REMARK  Name = 
REMARK  3 active torsions:
REMARK  status: ('A' for Active; 'I' for Inactive)
REMARK    1  A    between atoms: C_2  and  O_3
REMARK    2  A    between atoms: C_2  and  C_4
REMARK    3  A    between atoms: C_11  and  C_12
REMARK                            x       y       z     vdW  Elec       q    Type
REMARK                         _______ _______ _______ _____ _____    ______ ____
ROOT
ATOM      1  C   UNL     1       3.007   1.381  -0.051  0.00  0.00    +0.000 A 
ATOM      2  C   UNL     1       4.093   1.630  -0.857  0.00  0.00    +0.000 A 
ATOM      3  N   UNL     1       4.492   2.934  -0.735  0.00  0.00    +0.000 N 
ATOM      4  C   UNL     1       3.695   3.553   0.201  0.00  0.00    +0.000 A 
ATOM      5  C   UNL     1       3.776   4.854   0.709  0.00  0.00    +0.000 A 
ATOM      6  C   UNL     1       2.872   5.173   1.702  0.00  0.00    +0.000 A 
ATOM      7 CL   UNL     1       2.929   6.768   2.410  0.00  0.00    +0.000 Cl
ATOM      8  C   UNL     1       1.918   4.265   2.195  0.00  0.00    +0.000 A 
ATOM      9  C   UNL     1       1.847   2.983   1.675  0.00  0.00    +0.000 A 
ATOM     10  C   UNL     1       2.739   2.608   0.654  0.00  0.00    +0.000 A 
ATOM     11  H   UNL     1       5.254   3.374  -1.251  0.00  0.00    +0.000 HD
ENDROOT
BRANCH   8  12
ATOM     12  C   UNL     1       0.964   4.691   3.300  0.00  0.00    +0.000 A 
ATOM     13  C   UNL     1       0.110   5.746   3.099  0.00  0.00    +0.000 A 
ATOM     14  C   UNL     1      -0.808   6.145   4.073  0.00  0.00    +0.000 A 
ATOM     15  C   UNL     1      -0.803   5.447   5.278  0.00  0.00    +0.000 A 
ATOM     16  C   UNL     1       0.080   4.373   5.451  0.00  0.00    +0.000 A 
ATOM     17  C   UNL     1       0.955   3.952   4.487  0.00  0.00    +0.000 A 
ATOM     18  O   UNL     1      -0.007   3.813   6.714  0.00  0.00    +0.000 OA
ATOM     19  C   UNL     1      -0.750   4.758   7.539  0.00  0.00    +0.000 C 
ATOM     20  C   UNL     1      -1.616   5.649   6.550  0.00  0.00    +0.000 C 
ENDBRANCH   8  12
BRANCH   1  22
ATOM     21  O   UNL     1       0.976   0.070   0.067  0.00  0.00    +0.000 OA
ATOM     22  C   UNL     1       2.247   0.070   0.067  0.00  0.00    +0.000 C 
BRANCH  22  23
ATOM     23  O   UNL     1       2.957  -1.155   0.176  0.00  0.00    +0.000 OA
ATOM     24  H   UNL     1       3.957  -1.155   0.176  0.00  0.00    +0.000 HD
ENDBRANCH  22  23
ENDBRANCH   1  22
TORSDOF 3
