REMARK  Name = 
REMARK  9 active torsions:
REMARK  status: ('A' for Active; 'I' for Inactive)
REMARK    1  A    between atoms: C_1  and  N_2
REMARK    2  A    between atoms: N_5  and  C_6
REMARK    3  A    between atoms: C_6  and  C_7
REMARK    4  A    between atoms: C_7  and  C_8
REMARK    5  A    between atoms: C_8  and  O_9
REMARK    6  A    between atoms: O_9  and  C_10
REMARK    7  A    between atoms: C_13  and  C_14
REMARK    8  A    between atoms: C_17  and  C_18
REMARK    9  A    between atoms: C_18  and  O_20
REMARK                            x       y       z     vdW  Elec       q    Type
REMARK                         _______ _______ _______ _____ _____    ______ ____
ROOT
ATOM      1  C   UNL     1      -1.015   2.214   4.720  0.00  0.00    +0.000 A 
ATOM      2  C   UNL     1      -1.807   3.343   4.596  0.00  0.00    +0.000 A 
ATOM      3  C   UNL     1      -2.984   3.308   5.380  0.00  0.00    +0.000 A 
ATOM      4  C   UNL     1      -3.504   2.212   5.901  0.00  0.00    +0.000 A 
ATOM      5  C   UNL     1      -2.695   1.110   5.933  0.00  0.00    +0.000 A 
ATOM      6  C   UNL     1      -1.474   1.111   5.301  0.00  0.00    +0.000 A 
ENDROOT
BRANCH   4   7
ATOM      7  C   UNL     1      -4.926   2.176   6.436  0.00  0.00    +0.000 A 
ATOM      8  C   UNL     1      -5.981   2.458   5.582  0.00  0.00    +0.000 A 
ATOM      9  C   UNL     1      -7.211   2.681   6.245  0.00  0.00    +0.000 A 
ATOM     10  C   UNL     1      -8.255   3.350   5.513  0.00  0.00    +0.000 A 
ATOM     11  C   UNL     1      -9.526   3.602   6.139  0.00  0.00    +0.000 A 
ATOM     12  N   UNL     1      -8.768   2.275   7.986  0.00  0.00    +0.000 N 
ATOM     13  C   UNL     1      -7.468   2.317   7.488  0.00  0.00    +0.000 A 
ATOM     14  C   UNL     1      -6.390   1.986   8.261  0.00  0.00    +0.000 A 
ATOM     15  C   UNL     1      -5.135   1.875   7.712  0.00  0.00    +0.000 A 
ATOM     16 CL   UNL     1      -3.776   1.325   8.722  0.00  0.00    +0.000 Cl
ATOM     17  H   UNL     1      -8.936   1.990   8.951  0.00  0.00    +0.000 HD
BRANCH  10  18
ATOM     18  C   UNL     1      -8.014   3.791   4.078  0.00  0.00    +0.000 C 
ATOM     19  O   UNL     1      -8.935   4.381   3.432  0.00  0.00    +0.000 OA
BRANCH  18  20
ATOM     20  O   UNL     1      -6.760   3.542   3.459  0.00  0.00    +0.000 OA
ATOM     21  H   UNL     1      -6.602   3.832   2.516  0.00  0.00    +0.000 HD
ENDBRANCH  18  20
ENDBRANCH  10  18
ENDBRANCH   4   7
BRANCH   1  22
ATOM     22  O   UNL     1       0.312   2.234   4.217  0.00  0.00    +0.000 OA
BRANCH  22  23
ATOM     23  C   UNL     1       0.802   1.138   3.459  0.00  0.00    +0.000 C 
BRANCH  23  24
ATOM     24  C   UNL     1       0.749  -0.125   4.303  0.00  0.00    +0.000 C 
BRANCH  24  25
ATOM     25  C   UNL     1      -0.688  -0.397   4.718  0.00  0.00    +0.000 C 
BRANCH  25  30
ATOM     26  C   UNL     1       0.918   0.010   0.057  0.00  0.00    +0.000 C 
ATOM     27  N   UNL     1       0.428  -0.143   1.435  0.00  0.00    +0.000 N 
ATOM     28  C   UNL     1      -0.154   0.976   2.301  0.00  0.00    +0.000 C 
ATOM     29  C   UNL     1      -1.470   0.613   2.726  0.00  0.00    +0.000 C 
ATOM     30  N   UNL     1      -1.520  -0.574   3.519  0.00  0.00    +0.000 NA
ATOM     31  C   UNL     1      -0.992  -1.756   2.702  0.00  0.00    +0.000 C 
ATOM     32  C   UNL     1       0.435  -1.448   2.237  0.00  0.00    +0.000 C 
ATOM     33  O   UNL     1       1.459  -2.161   2.478  0.00  0.00    +0.000 OA
ENDBRANCH  25  30
ENDBRANCH  24  25
ENDBRANCH  23  24
ENDBRANCH  22  23
ENDBRANCH   1  22
TORSDOF 8
