
 OpenBabel03132512093D

 65 68  0  0  0  0  0  0  0  0999 V2000
    0.9471   -0.0466    0.0709 C   0  0  0  0  0  0  0  0  0  0  0  0
    0.4404   -1.4045   -0.3872 C   0  0  0  0  0  0  0  0  0  0  0  0
    0.9304   -2.4448    0.5286 N   0  0  0  0  0  0  0  0  0  0  0  0
    0.4404   -3.7580    0.0855 C   0  0  0  0  0  0  0  0  0  0  0  0
    0.9471   -4.0402   -1.3195 C   0  0  0  0  0  0  0  0  0  0  0  0
    2.4004   -2.4448    0.5286 C   0  0  0  0  0  0  0  0  0  0  0  0
    2.9071   -2.7270   -0.8765 C   0  0  0  0  0  0  0  0  0  0  0  0
    2.4171   -1.6867   -1.7922 N   0  0  0  0  0  0  0  0  0  0  0  0
    3.3724   -0.8480   -2.5305 C   0  0  0  0  0  0  0  0  0  0  0  0
    2.9487    0.0514   -3.3222 O   0  0  0  0  0  0  0  0  0  0  0  0
    4.8668   -1.0565   -2.3469 C   0  0  0  0  0  0  0  0  0  0  0  0
    5.5209   -2.2634   -2.3281 C   0  0  0  0  0  0  0  0  0  0  0  0
    5.0161   -3.6539   -2.5041 C   0  0  0  0  0  0  0  0  0  0  0  0
    6.8434   -2.0074   -2.1174 N   0  0  0  0  0  0  0  0  0  0  0  0
    7.0613   -0.6541   -2.0215 C   0  0  0  0  0  0  0  0  0  0  0  0
    8.4024    0.0258   -1.7992 C   0  0  0  0  0  0  0  0  0  0  0  0
    9.3945   -0.1491   -2.6896 C   0  0  0  0  0  0  0  0  0  0  0  0
    9.1830   -0.9488   -3.9338 C   0  0  0  0  0  0  0  0  0  0  0  0
    8.1735   -1.5651   -4.2795 O   0  0  0  0  0  0  0  0  0  0  0  0
   10.3271   -0.8697   -4.6569 N   0  0  0  0  0  0  0  0  0  0  0  0
   11.2922   -0.1001   -3.9981 C   0  0  0  0  0  0  0  0  0  0  0  0
   12.5636    0.1789   -4.4414 C   0  0  0  0  0  0  0  0  0  0  0  0
   13.3836    0.9285   -3.6053 C   0  0  0  0  0  0  0  0  0  0  0  0
   12.9143    1.3368   -2.3649 C   0  0  0  0  0  0  0  0  0  0  0  0
   13.8424    2.1044   -1.4377 C   0  0  0  0  0  0  0  0  0  0  0  0
   14.1232    1.5451   -0.1886 C   0  0  0  0  0  0  0  0  0  0  0  0
   15.0579    2.1907    0.6110 C   0  0  0  0  0  0  0  0  0  0  0  0
   15.6636    3.3343    0.1430 C   0  0  0  0  0  0  0  0  0  0  0  0
   15.3832    3.8856   -1.0419 N   0  0  0  0  0  0  0  0  0  0  0  0
   14.4790    3.2691   -1.8189 C   0  0  0  0  0  0  0  0  0  0  0  0
   11.6178    1.0617   -1.9492 C   0  0  0  0  0  0  0  0  0  0  0  0
   10.7695    0.3445   -2.7830 C   0  0  0  0  0  0  0  0  0  0  0  0
    5.8477   -0.0273   -2.1630 C   0  0  0  0  0  0  0  0  0  0  0  0
    5.5760    1.4542   -2.0935 C   0  0  0  0  0  0  0  0  0  0  0  0
    0.5904    0.1520    1.0600 H   0  0  0  0  0  0  0  0  0  0  0  0
    0.5904    0.7106   -0.5957 H   0  0  0  0  0  0  0  0  0  0  0  0
    2.0171   -0.0466    0.0709 H   0  0  0  0  0  0  0  0  0  0  0  0
   -0.6296   -1.4045   -0.3872 H   0  0  0  0  0  0  0  0  0  0  0  0
    0.7971   -1.6032   -1.3763 H   0  0  0  0  0  0  0  0  0  0  0  0
    0.7971   -4.5152    0.7521 H   0  0  0  0  0  0  0  0  0  0  0  0
   -0.6296   -3.7580    0.0855 H   0  0  0  0  0  0  0  0  0  0  0  0
    2.0171   -4.0402   -1.3195 H   0  0  0  0  0  0  0  0  0  0  0  0
    0.5904   -4.9961   -1.6420 H   0  0  0  0  0  0  0  0  0  0  0  0
    0.5904   -3.2830   -1.9861 H   0  0  0  0  0  0  0  0  0  0  0  0
    2.7571   -1.4889    0.8510 H   0  0  0  0  0  0  0  0  0  0  0  0
    2.7571   -3.2020    1.1951 H   0  0  0  0  0  0  0  0  0  0  0  0
    3.9771   -2.7270   -0.8765 H   0  0  0  0  0  0  0  0  0  0  0  0
    2.5504   -3.6829   -1.1989 H   0  0  0  0  0  0  0  0  0  0  0  0
    1.4143   -1.5468   -1.9154 H   0  0  0  0  0  0  0  0  0  0  0  0
    4.2919   -3.8691   -1.7464 H   0  0  0  0  0  0  0  0  0  0  0  0
    4.5624   -3.7493   -3.4685 H   0  0  0  0  0  0  0  0  0  0  0  0
    5.8315   -4.3422   -2.4239 H   0  0  0  0  0  0  0  0  0  0  0  0
    7.5691   -2.7203   -2.0415 H   0  0  0  0  0  0  0  0  0  0  0  0
    8.5563    0.6413   -0.9376 H   0  0  0  0  0  0  0  0  0  0  0  0
   10.4664   -1.3140   -5.5645 H   0  0  0  0  0  0  0  0  0  0  0  0
   12.9087   -0.1675   -5.3932 H   0  0  0  0  0  0  0  0  0  0  0  0
   14.3733    1.1896   -3.9173 H   0  0  0  0  0  0  0  0  0  0  0  0
   13.6357    0.6513    0.1405 H   0  0  0  0  0  0  0  0  0  0  0  0
   15.3035    1.8040    1.5779 H   0  0  0  0  0  0  0  0  0  0  0  0
   16.3983    3.8073    0.7606 H   0  0  0  0  0  0  0  0  0  0  0  0
   14.2422    3.6966   -2.7708 H   0  0  0  0  0  0  0  0  0  0  0  0
   11.2750    1.3998   -0.9936 H   0  0  0  0  0  0  0  0  0  0  0  0
    5.1194    1.7763   -3.0059 H   0  0  0  0  0  0  0  0  0  0  0  0
    4.9186    1.6581   -1.2742 H   0  0  0  0  0  0  0  0  0  0  0  0
    6.4972    1.9794   -1.9508 H   0  0  0  0  0  0  0  0  0  0  0  0
  1  2  1  0  0  0  0
  1 35  1  0  0  0  0
  1 36  1  0  0  0  0
  1 37  1  0  0  0  0
  2  3  1  0  0  0  0
  2 38  1  0  0  0  0
  2 39  1  0  0  0  0
  3  4  1  0  0  0  0
  3  6  1  0  0  0  0
  4  5  1  0  0  0  0
  4 40  1  0  0  0  0
  4 41  1  0  0  0  0
  5 42  1  0  0  0  0
  5 43  1  0  0  0  0
  5 44  1  0  0  0  0
  6  7  1  0  0  0  0
  6 45  1  0  0  0  0
  6 46  1  0  0  0  0
  7  8  1  0  0  0  0
  7 47  1  0  0  0  0
  7 48  1  0  0  0  0
  8  9  1  0  0  0  0
  8 49  1  0  0  0  0
  9 10  2  0  0  0  0
  9 11  1  0  0  0  0
 11 12  2  0  0  0  0
 11 33  1  0  0  0  0
 12 13  1  0  0  0  0
 12 14  1  0  0  0  0
 13 50  1  0  0  0  0
 13 51  1  0  0  0  0
 13 52  1  0  0  0  0
 14 15  1  0  0  0  0
 14 53  1  0  0  0  0
 15 16  1  0  0  0  0
 15 33  2  0  0  0  0
 16 17  2  0  0  0  0
 16 54  1  0  0  0  0
 17 18  1  0  0  0  0
 17 32  1  0  0  0  0
 18 19  2  0  0  0  0
 18 20  1  0  0  0  0
 20 21  1  0  0  0  0
 20 55  1  0  0  0  0
 21 22  1  0  0  0  0
 21 32  2  0  0  0  0
 22 23  2  0  0  0  0
 22 56  1  0  0  0  0
 23 24  1  0  0  0  0
 23 57  1  0  0  0  0
 24 25  1  0  0  0  0
 24 31  2  0  0  0  0
 25 26  1  0  0  0  0
 25 30  2  0  0  0  0
 26 27  2  0  0  0  0
 26 58  1  0  0  0  0
 27 28  1  0  0  0  0
 27 59  1  0  0  0  0
 28 29  2  0  0  0  0
 28 60  1  0  0  0  0
 29 30  1  0  0  0  0
 30 61  1  0  0  0  0
 31 32  1  0  0  0  0
 31 62  1  0  0  0  0
 33 34  1  0  0  0  0
 34 63  1  0  0  0  0
 34 64  1  0  0  0  0
 34 65  1  0  0  0  0
M  END
