
 OpenBabel03132512093D

 62 66  0  0  0  0  0  0  0  0999 V2000
    1.0754    0.0650    0.0094 C   0  0  0  0  0  0  0  0  0  0  0  0
    0.5688   -1.3343   -0.3000 C   0  0  0  0  0  0  0  0  0  0  0  0
    1.0754   -2.3019    0.7572 C   0  0  0  0  0  0  0  0  0  0  0  0
    0.5854   -1.8843    2.0787 N   0  0  0  0  0  0  0  0  0  0  0  0
   -0.2597   -2.7908    2.8693 C   0  0  0  0  0  0  0  0  0  0  0  0
   -0.6833   -2.4298    4.0119 O   0  0  0  0  0  0  0  0  0  0  0  0
   -0.6269   -4.1598    2.3203 C   0  0  0  0  0  0  0  0  0  0  0  0
    0.2864   -4.9791    1.7281 C   0  0  0  0  0  0  0  0  0  0  0  0
   -0.0703   -6.2190    1.3660 C   0  0  0  0  0  0  0  0  0  0  0  0
   -1.3353   -6.6939    1.5796 C   0  0  0  0  0  0  0  0  0  0  0  0
   -1.6230   -7.9965    1.1659 N   0  0  0  0  0  0  0  0  0  0  0  0
   -2.8541   -8.5284    1.3408 C   0  0  0  0  0  0  0  0  0  0  0  0
   -3.1189   -9.9047    0.8976 N   0  0  0  0  0  0  0  0  0  0  0  0
   -4.4535  -10.4926    1.0828 C   0  0  0  0  0  0  0  0  0  0  0  0
   -5.5876   -9.7583    0.3831 C   0  0  0  0  0  0  0  0  0  0  0  0
   -6.0640   -8.5434    1.1781 C   0  0  0  0  0  0  0  0  0  0  0  0
   -6.4887   -9.0125    2.5704 C   0  0  0  0  0  0  0  0  0  0  0  0
   -6.8774   -7.9391    3.4321 O   0  0  0  0  0  0  0  0  0  0  0  0
   -5.3533   -9.7210    3.2725 C   0  0  0  0  0  0  0  0  0  0  0  0
   -4.8390  -10.9153    2.4852 C   0  0  0  0  0  0  0  0  0  0  0  0
   -3.8804   -7.7855    1.9385 C   0  0  0  0  0  0  0  0  0  0  0  0
   -5.1459   -8.1543    2.1870 N   0  0  0  0  0  0  0  0  0  0  0  0
   -5.7823   -7.1656    2.7566 C   0  0  0  0  0  0  0  0  0  0  0  0
   -4.9169   -6.0795    2.9032 C   0  0  0  0  0  0  0  0  0  0  0  0
   -3.6765   -6.4446    2.3846 N   0  0  0  0  0  0  0  0  0  0  0  0
   -2.3347   -5.8758    2.1900 C   0  0  0  0  0  0  0  0  0  0  0  0
   -1.9363   -4.5918    2.5582 C   0  0  0  0  0  0  0  0  0  0  0  0
    0.5688   -3.7011    0.4478 C   0  0  0  0  0  0  0  0  0  0  0  0
    1.0451   -4.8031    1.2113 C   0  0  0  0  0  0  0  0  0  0  0  0
    0.8513   -6.1088    0.7316 C   0  0  0  0  0  0  0  0  0  0  0  0
    0.0183   -6.3270   -0.2431 C   0  0  0  0  0  0  0  0  0  0  0  0
   -0.6951   -5.2620   -0.8090 C   0  0  0  0  0  0  0  0  0  0  0  0
   -0.2897   -3.9306   -0.5473 C   0  0  0  0  0  0  0  0  0  0  0  0
    0.7188    0.3689    0.9713 H   0  0  0  0  0  0  0  0  0  0  0  0
    0.7188    0.7461   -0.7348 H   0  0  0  0  0  0  0  0  0  0  0  0
    2.1454    0.0650    0.0094 H   0  0  0  0  0  0  0  0  0  0  0  0
   -0.5012   -1.3343   -0.3000 H   0  0  0  0  0  0  0  0  0  0  0  0
    0.9254   -1.6382   -1.2619 H   0  0  0  0  0  0  0  0  0  0  0  0
    2.1454   -2.3019    0.7572 H   0  0  0  0  0  0  0  0  0  0  0  0
    0.8318   -0.9657    2.4471 H   0  0  0  0  0  0  0  0  0  0  0  0
    1.2840   -4.6341    1.5528 H   0  0  0  0  0  0  0  0  0  0  0  0
    0.6528   -6.8538    0.8980 H   0  0  0  0  0  0  0  0  0  0  0  0
   -2.3767  -10.4518    0.4615 H   0  0  0  0  0  0  0  0  0  0  0  0
   -4.3125  -11.4167    0.5621 H   0  0  0  0  0  0  0  0  0  0  0  0
   -6.4111  -10.4353    0.2917 H   0  0  0  0  0  0  0  0  0  0  0  0
   -5.2458   -9.4301   -0.5763 H   0  0  0  0  0  0  0  0  0  0  0  0
   -6.8889   -8.0788    0.6796 H   0  0  0  0  0  0  0  0  0  0  0  0
   -5.2684   -7.8330    1.2635 H   0  0  0  0  0  0  0  0  0  0  0  0
   -7.3226   -9.6605    2.3979 H   0  0  0  0  0  0  0  0  0  0  0  0
   -6.0942   -7.3376    3.5893 H   0  0  0  0  0  0  0  0  0  0  0  0
   -4.5470   -9.0248    3.3722 H   0  0  0  0  0  0  0  0  0  0  0  0
   -5.6985  -10.0613    4.2264 H   0  0  0  0  0  0  0  0  0  0  0  0
   -5.6118  -11.6530    2.4267 H   0  0  0  0  0  0  0  0  0  0  0  0
   -3.9816  -11.3216    2.9798 H   0  0  0  0  0  0  0  0  0  0  0  0
   -6.8073   -7.1851    3.0630 H   0  0  0  0  0  0  0  0  0  0  0  0
   -5.1631   -5.1332    3.3376 H   0  0  0  0  0  0  0  0  0  0  0  0
   -2.6368   -3.9320    3.0261 H   0  0  0  0  0  0  0  0  0  0  0  0
    1.5463   -4.6387    2.1423 H   0  0  0  0  0  0  0  0  0  0  0  0
    1.3892   -6.9243    1.1681 H   0  0  0  0  0  0  0  0  0  0  0  0
   -0.1225   -7.3210   -0.6132 H   0  0  0  0  0  0  0  0  0  0  0  0
   -1.5413   -5.4536   -1.4353 H   0  0  0  0  0  0  0  0  0  0  0  0
   -0.6658   -3.1217   -1.1381 H   0  0  0  0  0  0  0  0  0  0  0  0
  1  2  1  0  0  0  0
  1 34  1  0  0  0  0
  1 35  1  0  0  0  0
  1 36  1  0  0  0  0
  2  3  1  0  0  0  0
  2 37  1  0  0  0  0
  2 38  1  0  0  0  0
  3  4  1  0  0  0  0
  3 28  1  0  0  0  0
  3 39  1  0  0  0  0
  4  5  1  0  0  0  0
  4 40  1  0  0  0  0
  5  6  2  0  0  0  0
  5  7  1  0  0  0  0
  7  8  1  0  0  0  0
  7 27  2  0  0  0  0
  8  9  2  0  0  0  0
  8 41  1  0  0  0  0
  9 10  1  0  0  0  0
  9 42  1  0  0  0  0
 10 11  1  0  0  0  0
 10 26  2  0  0  0  0
 11 12  2  0  0  0  0
 12 13  1  0  0  0  0
 12 21  1  0  0  0  0
 13 14  1  0  0  0  0
 13 43  1  0  0  0  0
 14 15  1  0  0  0  0
 14 20  1  0  0  0  0
 14 44  1  0  0  0  0
 15 16  1  0  0  0  0
 15 45  1  0  0  0  0
 15 46  1  0  0  0  0
 16 17  1  0  0  0  0
 16 47  1  0  0  0  0
 16 48  1  0  0  0  0
 17 18  1  0  0  0  0
 17 19  1  0  0  0  0
 17 49  1  0  0  0  0
 18 50  1  0  0  0  0
 19 20  1  0  0  0  0
 19 51  1  0  0  0  0
 19 52  1  0  0  0  0
 20 53  1  0  0  0  0
 20 54  1  0  0  0  0
 21 22  2  0  0  0  0
 21 25  1  0  0  0  0
 22 23  1  0  0  0  0
 23 24  2  0  0  0  0
 23 55  1  0  0  0  0
 24 25  1  0  0  0  0
 24 56  1  0  0  0  0
 25 26  1  0  0  0  0
 26 27  1  0  0  0  0
 27 57  1  0  0  0  0
 28 29  1  0  0  0  0
 28 33  2  0  0  0  0
 29 30  2  0  0  0  0
 29 58  1  0  0  0  0
 30 31  1  0  0  0  0
 30 59  1  0  0  0  0
 31 32  2  0  0  0  0
 31 60  1  0  0  0  0
 32 33  1  0  0  0  0
 32 61  1  0  0  0  0
 33 62  1  0  0  0  0
M  END
