REMARK  Name = 
REMARK  7 active torsions:
REMARK  status: ('A' for Active; 'I' for Inactive)
REMARK    1  A    between atoms: C_2  and  O_3
REMARK    2  A    between atoms: C_2  and  C_4
REMARK    3  A    between atoms: C_11  and  O_12
REMARK    4  A    between atoms: O_12  and  C_13
REMARK    5  A    between atoms: C_13  and  C_14
REMARK    6  A    between atoms: N_23  and  C_24
REMARK    7  A    between atoms: C_24  and  C_25
REMARK                            x       y       z     vdW  Elec       q    Type
REMARK                         _______ _______ _______ _____ _____    ______ ____
ROOT
ATOM      1  C   UNL     1       3.088  -1.057   0.790  0.00  0.00    +0.000 C 
ATOM      2  C   UNL     1       2.148  -2.262   0.893  0.00  0.00    +0.000 C 
ATOM      3  C   UNL     1       2.883  -3.423   1.575  0.00  0.00    +0.000 C 
ATOM      4  C   UNL     1       3.521  -2.904   2.840  0.00  0.00    +0.000 A 
ATOM      5  C   UNL     1       3.714  -1.595   3.119  0.00  0.00    +0.000 A 
ATOM      6  C   UNL     1       4.315  -1.474   4.340  0.00  0.00    +0.000 A 
ATOM      7  C   UNL     1       4.713  -0.375   5.051  0.00  0.00    +0.000 A 
ATOM      8  C   UNL     1       5.296  -0.508   6.262  0.00  0.00    +0.000 A 
ATOM      9  C   UNL     1       5.505  -1.780   6.813  0.00  0.00    +0.000 A 
ATOM     10  C   UNL     1       5.114  -2.887   6.115  0.00  0.00    +0.000 A 
ATOM     11  C   UNL     1       4.511  -2.731   4.862  0.00  0.00    +0.000 A 
ATOM     12  N   UNL     1       4.011  -3.660   3.925  0.00  0.00    +0.000 N 
ATOM     13  C   UNL     1       3.317  -0.471   2.190  0.00  0.00    +0.000 C 
ENDROOT
BRANCH   1  15
ATOM     14  O   UNL     1       1.057  -0.054  -0.062  0.00  0.00    +0.000 OA
ATOM     15  C   UNL     1       2.328  -0.054  -0.062  0.00  0.00    +0.000 C 
BRANCH  15  16
ATOM     16  O   UNL     1       3.038   0.884  -0.858  0.00  0.00    +0.000 OA
ATOM     17  H   UNL     1       4.038   0.884  -0.858  0.00  0.00    +0.000 HD
ENDBRANCH  15  16
ENDBRANCH   1  15
BRANCH   8  18
ATOM     18  O   UNL     1       5.699   0.648   6.982  0.00  0.00    +0.000 OA
BRANCH  18  19
ATOM     19  C   UNL     1       6.311   0.514   8.256  0.00  0.00    +0.000 C 
BRANCH  19  20
ATOM     20  C   UNL     1       5.359  -0.196   9.204  0.00  0.00    +0.000 A 
ATOM     21  C   UNL     1       5.579  -1.577   9.462  0.00  0.00    +0.000 A 
ATOM     22  C   UNL     1       4.600  -2.315  10.148  0.00  0.00    +0.000 A 
ATOM     23  C   UNL     1       3.642  -1.699  10.776  0.00  0.00    +0.000 A 
ATOM     24  C   UNL     1       3.591  -0.298  10.778  0.00  0.00    +0.000 A 
ATOM     25  C   UNL     1       4.378   0.432   9.855  0.00  0.00    +0.000 A 
ENDBRANCH  19  20
ENDBRANCH  18  19
ENDBRANCH   8  18
BRANCH  12  26
ATOM     26  C   UNL     1       4.002  -5.124   4.054  0.00  0.00    +0.000 C 
BRANCH  26  27
ATOM     27  C   UNL     1       2.570  -5.630   3.998  0.00  0.00    +0.000 A 
ATOM     28  C   UNL     1       1.760  -5.390   2.853  0.00  0.00    +0.000 A 
ATOM     29  C   UNL     1       0.373  -5.596   2.935  0.00  0.00    +0.000 A 
ATOM     30  C   UNL     1      -0.129  -6.251   3.940  0.00  0.00    +0.000 A 
ATOM     31  F   UNL     1      -1.444  -6.436   4.022  0.00  0.00    +0.000 F 
ATOM     32  C   UNL     1       0.713  -6.762   4.937  0.00  0.00    +0.000 A 
ATOM     33  C   UNL     1       2.051  -6.307   5.023  0.00  0.00    +0.000 A 
ENDBRANCH  26  27
ENDBRANCH  12  26
TORSDOF 7
