REMARK  Name = 
REMARK  8 active torsions:
REMARK  status: ('A' for Active; 'I' for Inactive)
REMARK    1  A    between atoms: C_2  and  OXT_3
REMARK    2  A    between atoms: C_2  and  CA_4
REMARK    3  A    between atoms: C_7  and  C_8
REMARK    4  A    between atoms: C_11  and  C_12
REMARK    5  A    between atoms: C_15  and  C_16
REMARK    6  A    between atoms: C_20  and  O_21
REMARK    7  A    between atoms: O_21  and  C_22
REMARK    8  A    between atoms: C_26  and  O_27
REMARK                            x       y       z     vdW  Elec       q    Type
REMARK                         _______ _______ _______ _____ _____    ______ ____
ROOT
ATOM      1  C   UNL     1      14.892  -1.691   1.347  0.00  0.00    +0.000 A 
ATOM      2  N   UNL     1      15.394  -2.822   1.959  0.00  0.00    +0.000 NA
ATOM      3  C   UNL     1      16.760  -2.905   2.244  0.00  0.00    +0.000 A 
ATOM      4  N   UNL     1      17.605  -3.923   2.866  0.00  0.00    +0.000 NA
ATOM      5  C   UNL     1      18.826  -3.476   2.880  0.00  0.00    +0.000 A 
ATOM      6  N   UNL     1      18.881  -2.204   2.302  0.00  0.00    +0.000 N 
ATOM      7  C   UNL     1      17.611  -1.838   1.904  0.00  0.00    +0.000 A 
ATOM      8  C   UNL     1      17.088  -0.708   1.287  0.00  0.00    +0.000 A 
ATOM      9  C   UNL     1      15.742  -0.638   1.007  0.00  0.00    +0.000 A 
ATOM     10 CL   UNL     1      15.080   0.806   0.204  0.00  0.00    +0.000 Cl
ATOM     11  H   UNL     1      19.723  -1.639   2.192  0.00  0.00    +0.000 HD
ENDROOT
BRANCH   1  15
ATOM     12  C   UNL     1      10.712  -1.651   0.467  0.00  0.00    +0.000 A 
ATOM     13  C   UNL     1      11.115  -1.877   1.773  0.00  0.00    +0.000 A 
ATOM     14  C   UNL     1      12.494  -1.652   1.994  0.00  0.00    +0.000 A 
ATOM     15  C   UNL     1      13.406  -1.592   1.041  0.00  0.00    +0.000 A 
ATOM     16  C   UNL     1      12.942  -1.437  -0.235  0.00  0.00    +0.000 A 
ATOM     17  C   UNL     1      11.598  -1.513  -0.513  0.00  0.00    +0.000 A 
BRANCH  12  21
ATOM     18  C   UNL     1       6.502  -1.538  -0.245  0.00  0.00    +0.000 A 
ATOM     19  C   UNL     1       7.040  -0.682   0.702  0.00  0.00    +0.000 A 
ATOM     20  C   UNL     1       8.454  -0.643   0.703  0.00  0.00    +0.000 A 
ATOM     21  C   UNL     1       9.229  -1.558   0.149  0.00  0.00    +0.000 A 
ATOM     22  C   UNL     1       8.624  -2.418  -0.726  0.00  0.00    +0.000 A 
ATOM     23  C   UNL     1       7.259  -2.426  -0.878  0.00  0.00    +0.000 A 
BRANCH  18  27
ATOM     24  CA  UNL     1       3.031  -0.628  -1.244  0.00  0.00    +0.000 C 
ATOM     25  C   UNL     1       2.851  -2.179  -1.245  0.00  0.00    +0.000 C 
ATOM     26  C   UNL     1       4.035  -2.644  -0.374  0.00  0.00    +0.000 C 
ATOM     27  C   UNL     1       5.019  -1.459  -0.564  0.00  0.00    +0.000 C 
ATOM     28  N   UNL     1       4.447  -0.408  -1.019  0.00  0.00    +0.000 NA
BRANCH  24  30
ATOM     29  O   UNL     1       1.000   0.020  -0.098  0.00  0.00    +0.000 OA
ATOM     30  C   UNL     1       2.271   0.020  -0.098  0.00  0.00    +0.000 C 
BRANCH  30  31
ATOM     31  OXT UNL     1       2.981   0.626   0.972  0.00  0.00    +0.000 OA
ATOM     32  HXT UNL     1       3.981   0.626   0.972  0.00  0.00    +0.000 HD
ENDBRANCH  30  31
ENDBRANCH  24  30
ENDBRANCH  18  27
ENDBRANCH  12  21
ENDBRANCH   1  15
BRANCH   5  33
ATOM     33  O   UNL     1      19.943  -4.179   3.405  0.00  0.00    +0.000 OA
BRANCH  33  34
ATOM     34  C   UNL     1      19.768  -5.470   3.970  0.00  0.00    +0.000 C 
ATOM     35  C   UNL     1      19.271  -6.374   3.111  0.00  0.00    +0.000 C 
ATOM     36  O   UNL     1      17.819  -6.385   3.197  0.00  0.00    +0.000 OA
ATOM     37  C   UNL     1      17.459  -5.831   4.589  0.00  0.00    +0.000 C 
ATOM     38  C   UNL     1      17.014  -6.972   5.480  0.00  0.00    +0.000 C 
ATOM     39  C   UNL     1      18.142  -7.545   5.985  0.00  0.00    +0.000 C 
ATOM     40  O   UNL     1      19.181  -6.539   6.142  0.00  0.00    +0.000 OA
ATOM     41  C   UNL     1      18.837  -5.399   5.165  0.00  0.00    +0.000 C 
BRANCH  38  42
ATOM     42  O   UNL     1      16.250  -7.918   4.748  0.00  0.00    +0.000 OA
ATOM     43  H   UNL     1      16.800  -8.282   3.996  0.00  0.00    +0.000 HD
ENDBRANCH  38  42
ENDBRANCH  33  34
ENDBRANCH   5  33
TORSDOF 8
