REMARK  Name = 
REMARK  5 active torsions:
REMARK  status: ('A' for Active; 'I' for Inactive)
REMARK    1  A    between atoms: C_2  and  C_3
REMARK    2  A    between atoms: C_6  and  C_7
REMARK    3  A    between atoms: N_13  and  C_14
REMARK    4  A    between atoms: C_14  and  C_15
REMARK    5  A    between atoms: C_21  and  C_22
REMARK                            x       y       z     vdW  Elec       q    Type
REMARK                         _______ _______ _______ _____ _____    ______ ____
ROOT
ATOM      1  C   UNL     1       5.344   2.223   4.251  0.00  0.00    +0.000 A 
ATOM      2  C   UNL     1       5.790   1.397   5.285  0.00  0.00    +0.000 A 
ATOM      3  N   UNL     1       6.589   1.921   6.276  0.00  0.00    +0.000 NA
ATOM      4  C   UNL     1       6.959   3.262   6.258  0.00  0.00    +0.000 A 
ATOM      5  C   UNL     1       6.525   4.081   5.236  0.00  0.00    +0.000 A 
ATOM      6  C   UNL     1       5.722   3.563   4.232  0.00  0.00    +0.000 A 
ATOM      7  N   UNL     1       6.897   5.538   5.153  0.00  0.00    +0.000 N 
ATOM      8  C   UNL     1       7.400   6.043   6.504  0.00  0.00    +0.000 C 
ATOM      9  C   UNL     1       8.489   5.086   7.002  0.00  0.00    +0.000 C 
ATOM     10  N   UNL     1       7.830   3.762   7.381  0.00  0.00    +0.000 N 
ATOM     11  H   UNL     1       7.960   3.282   8.271  0.00  0.00    +0.000 HD
ENDROOT
BRANCH   1  15
ATOM     12  C   UNL     1       3.011   0.674   1.026  0.00  0.00    +0.000 A 
ATOM     13  C   UNL     1       4.168   1.377   0.732  0.00  0.00    +0.000 A 
ATOM     14  C   UNL     1       4.974   1.653   1.862  0.00  0.00    +0.000 A 
ATOM     15  C   UNL     1       4.554   1.598   3.113  0.00  0.00    +0.000 A 
ATOM     16  C   UNL     1       3.370   0.948   3.329  0.00  0.00    +0.000 A 
ATOM     17  C   UNL     1       2.590   0.532   2.277  0.00  0.00    +0.000 A 
BRANCH  12  19
ATOM     18  O   UNL     1       0.980  -0.084  -0.051  0.00  0.00    +0.000 OA
ATOM     19  C   UNL     1       2.251  -0.084  -0.051  0.00  0.00    +0.000 C 
ATOM     20  N   UNL     1       2.986  -0.817  -1.092  0.00  0.00    +0.000 N 
ATOM     21  C   UNL     1       4.125  -1.704  -0.825  0.00  0.00    +0.000 C 
ATOM     22  C   UNL     1       5.368  -1.196  -1.523  0.00  0.00    +0.000 C 
ATOM     23  C   UNL     1       5.140  -1.083  -3.029  0.00  0.00    +0.000 C 
ATOM     24  C   UNL     1       3.882  -0.264  -3.312  0.00  0.00    +0.000 C 
ATOM     25  C   UNL     1       2.701  -0.810  -2.525  0.00  0.00    +0.000 C 
ENDBRANCH  12  19
ENDBRANCH   1  15
BRANCH   7  26
ATOM     26  C   UNL     1       6.790   6.361   3.940  0.00  0.00    +0.000 C 
BRANCH  26  27
ATOM     27  C   UNL     1       7.660   5.766   2.845  0.00  0.00    +0.000 A 
ATOM     28  C   UNL     1       8.724   6.529   2.392  0.00  0.00    +0.000 A 
ATOM     29  C   UNL     1       9.357   6.003   1.241  0.00  0.00    +0.000 A 
ATOM     30 CL   UNL     1      10.392   7.098   0.293  0.00  0.00    +0.000 Cl
ATOM     31  C   UNL     1       9.234   4.757   0.821  0.00  0.00    +0.000 A 
ATOM     32  C   UNL     1       8.205   4.034   1.358  0.00  0.00    +0.000 A 
ATOM     33  C   UNL     1       7.457   4.533   2.397  0.00  0.00    +0.000 A 
BRANCH  33  34
ATOM     34  C   UNL     1       6.387   3.665   3.039  0.00  0.00    +0.000 C 
ATOM     35  F   UNL     1       5.484   3.324   2.124  0.00  0.00    +0.000 F 
ATOM     36  F   UNL     1       6.948   2.567   3.539  0.00  0.00    +0.000 F 
ATOM     37  F   UNL     1       5.793   4.344   4.016  0.00  0.00    +0.000 F 
ENDBRANCH  33  34
ENDBRANCH  26  27
ENDBRANCH   7  26
TORSDOF 5
