REMARK  Name = 
REMARK  9 active torsions:
REMARK  status: ('A' for Active; 'I' for Inactive)
REMARK    1  A    between atoms: C_1  and  S_2
REMARK    2  A    between atoms: S_2  and  N_37
REMARK    3  A    between atoms: N_4  and  C_5
REMARK    4  A    between atoms: C_8  and  C_9
REMARK    5  A    between atoms: C_12  and  C_13
REMARK    6  A    between atoms: C_17  and  O_18
REMARK    7  A    between atoms: O_18  and  C_19
REMARK    8  A    between atoms: C_23  and  O_24
REMARK    9  A    between atoms: N_37  and  C_38
REMARK                            x       y       z     vdW  Elec       q    Type
REMARK                         _______ _______ _______ _____ _____    ______ ____
ROOT
ATOM      1  C   UNL     1      -4.446   2.113   3.395  0.00  0.00    +0.000 A 
ATOM      2  C   UNL     1      -4.768   1.783   4.702  0.00  0.00    +0.000 A 
ATOM      3  C   UNL     1      -5.870   2.503   5.220  0.00  0.00    +0.000 A 
ATOM      4  C   UNL     1      -6.343   3.623   4.703  0.00  0.00    +0.000 A 
ATOM      5  C   UNL     1      -5.934   3.927   3.434  0.00  0.00    +0.000 A 
ATOM      6  C   UNL     1      -4.955   3.191   2.812  0.00  0.00    +0.000 A 
ENDROOT
BRANCH   4   7
ATOM      7  C   UNL     1      -7.291   4.524   5.477  0.00  0.00    +0.000 A 
ATOM      8  N   UNL     1      -6.923   5.168   6.642  0.00  0.00    +0.000 NA
ATOM      9  C   UNL     1      -7.820   6.043   7.261  0.00  0.00    +0.000 A 
ATOM     10  N   UNL     1      -7.761   6.867   8.468  0.00  0.00    +0.000 NA
ATOM     11  C   UNL     1      -8.893   7.498   8.577  0.00  0.00    +0.000 A 
ATOM     12  N   UNL     1      -9.738   7.161   7.515  0.00  0.00    +0.000 N 
ATOM     13  C   UNL     1      -9.087   6.262   6.694  0.00  0.00    +0.000 A 
ATOM     14  C   UNL     1      -9.440   5.606   5.520  0.00  0.00    +0.000 A 
ATOM     15  C   UNL     1      -8.548   4.750   4.915  0.00  0.00    +0.000 A 
ATOM     16 CL   UNL     1      -9.001   3.924   3.405  0.00  0.00    +0.000 Cl
ATOM     17  H   UNL     1     -10.681   7.521   7.370  0.00  0.00    +0.000 HD
BRANCH  11  18
ATOM     18  O   UNL     1      -9.224   8.399   9.624  0.00  0.00    +0.000 OA
BRANCH  18  19
ATOM     19  C   UNL     1      -8.284   8.666  10.654  0.00  0.00    +0.000 C 
ATOM     20  C   UNL     1      -7.166   9.187  10.124  0.00  0.00    +0.000 C 
ATOM     21  O   UNL     1      -6.257   8.116   9.746  0.00  0.00    +0.000 OA
ATOM     22  C   UNL     1      -6.639   6.896  10.606  0.00  0.00    +0.000 C 
ATOM     23  C   UNL     1      -5.600   6.707  11.692  0.00  0.00    +0.000 C 
ATOM     24  C   UNL     1      -5.934   7.545  12.712  0.00  0.00    +0.000 C 
ATOM     25  O   UNL     1      -7.379   7.707  12.767  0.00  0.00    +0.000 OA
ATOM     26  C   UNL     1      -7.910   7.378  11.359  0.00  0.00    +0.000 C 
BRANCH  23  27
ATOM     27  O   UNL     1      -4.298   6.996  11.205  0.00  0.00    +0.000 OA
ATOM     28  H   UNL     1      -4.266   7.941  10.879  0.00  0.00    +0.000 HD
ENDBRANCH  23  27
ENDBRANCH  18  19
ENDBRANCH  11  18
ENDBRANCH   4   7
BRANCH   1  32
ATOM     29  C   UNL     1      -1.884  -0.708   1.465  0.00  0.00    +0.000 A 
ATOM     30  C   UNL     1      -3.030  -1.170   2.091  0.00  0.00    +0.000 A 
ATOM     31  C   UNL     1      -3.912  -0.143   2.504  0.00  0.00    +0.000 A 
ATOM     32  C   UNL     1      -3.574   1.126   2.636  0.00  0.00    +0.000 A 
ATOM     33  C   UNL     1      -2.397   1.506   2.053  0.00  0.00    +0.000 A 
ATOM     34  C   UNL     1      -1.544   0.575   1.512  0.00  0.00    +0.000 A 
BRANCH  29  38
ATOM     35  C   UNL     1       1.029  -0.066   0.069  0.00  0.00    +0.000 C 
ATOM     36  S   UNL     1       0.426  -1.675   0.638  0.00  0.00    +0.000 S 
ATOM     37  O   UNL     1       0.936  -1.939   2.056  0.00  0.00    +0.000 OA
ATOM     38  N   UNL     1      -1.149  -1.675   0.638  0.00  0.00    +0.000 NA
BRANCH  36  39
ATOM     39  N   UNL     1       1.013  -2.936  -0.441  0.00  0.00    +0.000 NA
ATOM     40  H   UNL     1       0.673  -3.843  -0.120  0.00  0.00    +0.000 HD
BRANCH  39  41
ATOM     41  C   UNL     1       2.483  -2.936  -0.441  0.00  0.00    +0.000 C 
ATOM     42  C   UNL     1       3.126  -1.942   0.541  0.00  0.00    +0.000 C 
ATOM     43  C   UNL     1       4.182  -3.023   0.822  0.00  0.00    +0.000 C 
ATOM     44  C   UNL     1       3.127  -4.057   0.395  0.00  0.00    +0.000 C 
ENDBRANCH  39  41
ENDBRANCH  36  39
ENDBRANCH  29  38
ENDBRANCH   1  32
TORSDOF 8
