
 OpenBabel03132512083D

 40 43  0  0  0  0  0  0  0  0999 V2000
    0.9162   -0.0454   -0.0303 O   0  0  0  0  0  0  0  0  0  0  0  0
    2.1871   -0.0454   -0.0303 C   0  0  0  0  0  0  0  0  0  0  0  0
    2.8971   -0.1898    1.1910 O   0  0  0  0  0  0  0  0  0  0  0  0
    2.9471    0.1092   -1.3375 C   0  0  0  0  0  0  0  0  0  0  0  0
    3.9819   -0.5871   -1.7072 C   0  0  0  0  0  0  0  0  0  0  0  0
    4.4268   -0.1609   -2.9623 N   0  0  0  0  0  0  0  0  0  0  0  0
    3.6160    0.8665   -3.3996 C   0  0  0  0  0  0  0  0  0  0  0  0
    3.5935    1.6479   -4.5492 C   0  0  0  0  0  0  0  0  0  0  0  0
    2.6290    2.6184   -4.7026 C   0  0  0  0  0  0  0  0  0  0  0  0
    2.6055    3.3561   -5.8090 F   0  0  0  0  0  0  0  0  0  0  0  0
    1.6762    2.8340   -3.7067 C   0  0  0  0  0  0  0  0  0  0  0  0
    0.6264    3.9184   -3.8862 C   0  0  0  0  0  0  0  0  0  0  0  0
    0.5296    4.9637   -2.9896 C   0  0  0  0  0  0  0  0  0  0  0  0
   -0.3866    5.9063   -3.1457 C   0  0  0  0  0  0  0  0  0  0  0  0
   -1.2340    5.8877   -4.1608 C   0  0  0  0  0  0  0  0  0  0  0  0
   -2.2636    6.9972   -4.3001 C   0  0  0  0  0  0  0  0  0  0  0  0
   -1.0872    7.5017   -3.4804 C   0  0  0  0  0  0  0  0  0  0  0  0
   -0.9434    6.7012   -2.3164 O   0  0  0  0  0  0  0  0  0  0  0  0
   -3.1068    7.7147   -5.3562 C   0  0  0  0  0  0  0  0  0  0  0  0
   -3.7847    6.8272   -4.3093 C   0  0  0  0  0  0  0  0  0  0  0  0
   -1.1945    4.8717   -5.0960 C   0  0  0  0  0  0  0  0  0  0  0  0
   -0.2508    3.8640   -4.9597 C   0  0  0  0  0  0  0  0  0  0  0  0
    1.6825    2.0669   -2.5586 C   0  0  0  0  0  0  0  0  0  0  0  0
    0.7689    2.2700   -1.6136 F   0  0  0  0  0  0  0  0  0  0  0  0
    2.6545    1.0753   -2.3952 C   0  0  0  0  0  0  0  0  0  0  0  0
    3.8971   -0.1898    1.1910 H   0  0  0  0  0  0  0  0  0  0  0  0
    4.4280   -1.3725   -1.1337 H   0  0  0  0  0  0  0  0  0  0  0  0
    5.2217   -0.5467   -3.4719 H   0  0  0  0  0  0  0  0  0  0  0  0
    4.3255    1.4951   -5.3145 H   0  0  0  0  0  0  0  0  0  0  0  0
    1.2028    5.0125   -2.1593 H   0  0  0  0  0  0  0  0  0  0  0  0
   -0.4428    6.7027   -2.4332 H   0  0  0  0  0  0  0  0  0  0  0  0
   -0.1935    7.4437   -4.0659 H   0  0  0  0  0  0  0  0  0  0  0  0
   -1.2612    8.5182   -3.1950 H   0  0  0  0  0  0  0  0  0  0  0  0
   -1.7787    6.7555   -1.7692 H   0  0  0  0  0  0  0  0  0  0  0  0
   -3.2181    8.7306   -5.6733 H   0  0  0  0  0  0  0  0  0  0  0  0
   -3.0652    7.4002   -6.3781 H   0  0  0  0  0  0  0  0  0  0  0  0
   -4.4527    5.9920   -4.3433 H   0  0  0  0  0  0  0  0  0  0  0  0
   -4.3772    7.2694   -3.5358 H   0  0  0  0  0  0  0  0  0  0  0  0
   -1.8830    4.8621   -5.9151 H   0  0  0  0  0  0  0  0  0  0  0  0
   -0.2006    3.0626   -5.6669 H   0  0  0  0  0  0  0  0  0  0  0  0
  1  2  2  0  0  0  0
  2  3  1  0  0  0  0
  2  4  1  0  0  0  0
  3 26  1  0  0  0  0
  4  5  2  0  0  0  0
  4 25  1  0  0  0  0
  5  6  1  0  0  0  0
  5 27  1  0  0  0  0
  6  7  1  0  0  0  0
  6 28  1  0  0  0  0
  7  8  1  0  0  0  0
  7 25  2  0  0  0  0
  8  9  2  0  0  0  0
  8 29  1  0  0  0  0
  9 10  1  0  0  0  0
  9 11  1  0  0  0  0
 11 12  1  0  0  0  0
 11 23  2  0  0  0  0
 12 13  1  0  0  0  0
 12 22  2  0  0  0  0
 13 14  2  0  0  0  0
 13 30  1  0  0  0  0
 14 15  1  0  0  0  0
 14 31  1  0  0  0  0
 15 16  1  0  0  0  0
 15 21  2  0  0  0  0
 16 17  1  0  0  0  0
 16 19  1  0  0  0  0
 16 20  1  0  0  0  0
 17 18  1  0  0  0  0
 17 32  1  0  0  0  0
 17 33  1  0  0  0  0
 18 34  1  0  0  0  0
 19 20  1  0  0  0  0
 19 35  1  0  0  0  0
 19 36  1  0  0  0  0
 20 37  1  0  0  0  0
 20 38  1  0  0  0  0
 21 22  1  0  0  0  0
 21 39  1  0  0  0  0
 22 40  1  0  0  0  0
 23 24  1  0  0  0  0
 23 25  1  0  0  0  0
M  END
