REMARK  Name = 
REMARK  12 active torsions:
REMARK  status: ('A' for Active; 'I' for Inactive)
REMARK    1  A    between atoms: C_1  and  O_2
REMARK    2  A    between atoms: O_2  and  C_3
REMARK    3  A    between atoms: N_10  and  C_11
REMARK    4  A    between atoms: C_21  and  C_22
REMARK    5  A    between atoms: C_22  and  N_23
REMARK    6  A    between atoms: N_23  and  C_24
REMARK    7  A    between atoms: N_23  and  C_25
REMARK    8  A    between atoms: C_25  and  C_26
REMARK    9  A    between atoms: C_25  and  C_30
REMARK   10  A    between atoms: C_26  and  N_27
REMARK   11  A    between atoms: N_27  and  C_28
REMARK   12  A    between atoms: N_27  and  C_29
REMARK                            x       y       z     vdW  Elec       q    Type
REMARK                         _______ _______ _______ _____ _____    ______ ____
ROOT
ATOM      1  C   UNL     1       0.799  -1.453  -1.911  0.00  0.00    +0.000 A 
ATOM      2  C   UNL     1      -0.143  -1.947  -2.770  0.00  0.00    +0.000 A 
ATOM      3  C   UNL     1       0.203  -2.256  -4.104  0.00  0.00    +0.000 A 
ATOM      4  N   UNL     1      -0.755  -2.722  -4.967  0.00  0.00    +0.000 NA
ATOM      5  C   UNL     1      -0.364  -2.989  -6.183  0.00  0.00    +0.000 A 
ATOM      6  N   UNL     1       0.904  -2.868  -6.683  0.00  0.00    +0.000 NA
ATOM      7  C   UNL     1       1.834  -2.437  -5.865  0.00  0.00    +0.000 A 
ATOM      8  N   UNL     1       3.215  -2.316  -6.354  0.00  0.00    +0.000 N 
ATOM      9  C   UNL     1       1.544  -2.083  -4.517  0.00  0.00    +0.000 A 
ATOM     10  C   UNL     1       2.503  -1.584  -3.606  0.00  0.00    +0.000 A 
ATOM     11  C   UNL     1       2.130  -1.270  -2.330  0.00  0.00    +0.000 A 
ATOM     12  H   UNL     1       3.949  -1.983  -5.730  0.00  0.00    +0.000 HD
ENDROOT
BRANCH   8  13
ATOM     13  C   UNL     1       3.537  -2.676  -7.742  0.00  0.00    +0.000 A 
ATOM     14  C   UNL     1       4.515  -3.606  -8.032  0.00  0.00    +0.000 A 
ATOM     15  C   UNL     1       4.881  -3.878  -9.344  0.00  0.00    +0.000 A 
ATOM     16  C   UNL     1       4.245  -3.195 -10.379  0.00  0.00    +0.000 A 
ATOM     17  C   UNL     1       3.265  -2.264 -10.087  0.00  0.00    +0.000 A 
ATOM     18 CL   UNL     1       2.439  -1.442 -11.365  0.00  0.00    +0.000 Cl
ATOM     19  C   UNL     1       2.927  -2.014  -8.776  0.00  0.00    +0.000 A 
ATOM     20  F   UNL     1       1.954  -1.120  -8.503  0.00  0.00    +0.000 F 
ENDBRANCH   8  13
BRANCH   1  22
ATOM     21  C   UNL     1       0.929  -0.002   0.070  0.00  0.00    +0.000 C 
ATOM     22  O   UNL     1       0.456  -1.183  -0.560  0.00  0.00    +0.000 OA
ENDBRANCH   1  22
BRANCH  11  23
ATOM     23  C   UNL     1       3.160  -0.720  -1.357  0.00  0.00    +0.000 C 
BRANCH  23  24
ATOM     24  N   UNL     1       4.242  -1.699  -1.183  0.00  0.00    +0.000 NA
ATOM     25  C   UNL     1       5.238  -1.166  -0.242  0.00  0.00    +0.000 C 
BRANCH  24  26
ATOM     26  C   UNL     1       3.688  -2.953  -0.653  0.00  0.00    +0.000 C 
BRANCH  26  27
ATOM     27  C   UNL     1       2.659  -3.503  -1.626  0.00  0.00    +0.000 C 
ATOM     28  N   UNL     1       2.851  -4.832  -2.226  0.00  0.00    +0.000 N 
ATOM     29  O   UNL     1       1.632  -2.815  -1.922  0.00  0.00    +0.000 OA
ATOM     30  H   UNL     1       2.160  -5.202  -2.879  0.00  0.00    +0.000 HD
ATOM     31  H   UNL     1       3.675  -5.384  -1.988  0.00  0.00    +0.000 HD
ENDBRANCH  26  27
BRANCH  26  32
ATOM     32  C   UNL     1       3.025  -2.687   0.689  0.00  0.00    +0.000 C 
BRANCH  32  33
ATOM     33  N   UNL     1       1.943  -1.708   0.515  0.00  0.00    +0.000 NA
ATOM     34  C   UNL     1       1.302  -1.451   1.812  0.00  0.00    +0.000 C 
ATOM     35  C   UNL     1       2.497  -0.454  -0.015  0.00  0.00    +0.000 C 
ENDBRANCH  32  33
ENDBRANCH  26  32
ENDBRANCH  24  26
ENDBRANCH  23  24
ENDBRANCH  11  23
TORSDOF 8
