REMARK  Name = 
REMARK  9 active torsions:
REMARK  status: ('A' for Active; 'I' for Inactive)
REMARK    1  A    between atoms: C_1  and  C_2
REMARK    2  A    between atoms: C_2  and  C_3
REMARK    3  A    between atoms: C_2  and  C_4
REMARK    4  A    between atoms: C_2  and  C_5
REMARK    5  A    between atoms: C_5  and  N_6
REMARK    6  A    between atoms: C_5  and  C_21
REMARK    7  A    between atoms: C_7  and  C_9
REMARK    8  A    between atoms: C_15  and  C_16
REMARK    9  A    between atoms: C_25  and  C_26
REMARK                            x       y       z     vdW  Elec       q    Type
REMARK                         _______ _______ _______ _____ _____    ______ ____
ROOT
ATOM      1  N   UNL     1       0.558   2.617   1.088  0.00  0.00    +0.000 N 
ATOM      2  C   UNL     1       1.514   2.712   2.201  0.00  0.00    +0.000 C 
ATOM      3  O   UNL     1       1.090   2.813   3.395  0.00  0.00    +0.000 OA
ATOM      4  H   UNL     1      -0.444   2.633   1.273  0.00  0.00    +0.000 HD
ENDROOT
BRANCH   2   5
ATOM      5  C   UNL     1       3.008   2.688   1.924  0.00  0.00    +0.000 A 
ATOM      6  C   UNL     1       3.957   1.967   2.600  0.00  0.00    +0.000 A 
ATOM      7  N   UNL     1       5.183   2.227   2.071  0.00  0.00    +0.000 N 
ATOM      8  C   UNL     1       5.086   3.111   1.017  0.00  0.00    +0.000 A 
ATOM      9  N   UNL     1       5.973   3.657   0.187  0.00  0.00    +0.000 NA
ATOM     10  C   UNL     1       5.582   4.490  -0.768  0.00  0.00    +0.000 A 
ATOM     11  C   UNL     1       4.226   4.829  -0.911  0.00  0.00    +0.000 A 
ATOM     12  N   UNL     1       3.340   4.279  -0.082  0.00  0.00    +0.000 NA
ATOM     13  C   UNL     1       3.725   3.437   0.874  0.00  0.00    +0.000 A 
ATOM     14  H   UNL     1       6.057   1.823   2.409  0.00  0.00    +0.000 HD
BRANCH  11  15
ATOM     15  C   UNL     1       3.779   5.803  -1.989  0.00  0.00    +0.000 C 
ATOM     16  C   UNL     1       4.814   6.624  -2.760  0.00  0.00    +0.000 C 
ATOM     17  C   UNL     1       4.019   5.529  -3.476  0.00  0.00    +0.000 C 
ENDBRANCH  11  15
ENDBRANCH   2   5
BRANCH   1  18
ATOM     18  C   UNL     1       1.048   2.500  -0.293  0.00  0.00    +0.000 C 
BRANCH  18  19
ATOM     19  C   UNL     1       2.568   2.500  -0.293  0.00  0.00    +0.000 C 
ATOM     20  O   UNL     1       3.204   3.403  -0.922  0.00  0.00    +0.000 OA
ATOM     21  N   UNL     1       3.304   1.455   0.434  0.00  0.00    +0.000 N 
ATOM     22  C   UNL     1       4.463   1.324   1.437  0.00  0.00    +0.000 C 
ATOM     23  C   UNL     1       4.631  -0.118   0.933  0.00  0.00    +0.000 C 
ATOM     24  C   UNL     1       3.147  -0.073   0.534  0.00  0.00    +0.000 C 
BRANCH  23  25
ATOM     25  C   UNL     1       5.192  -1.219   1.819  0.00  0.00    +0.000 C 
ATOM     26  N   UNL     1       5.657  -2.131   2.555  0.00  0.00    +0.000 NA
ENDBRANCH  23  25
ENDBRANCH  18  19
BRANCH  18  28
ATOM     27  C   UNL     1       1.048   0.027  -0.083  0.00  0.00    +0.000 C 
ATOM     28  C   UNL     1       0.542   1.203  -0.902  0.00  0.00    +0.000 C 
ATOM     29  C   UNL     1       1.048   1.081  -2.330  0.00  0.00    +0.000 C 
ATOM     30  C   UNL     1      -0.978   1.203  -0.902  0.00  0.00    +0.000 C 
ENDBRANCH  18  28
ENDBRANCH   1  18
TORSDOF 6
