
 OpenBabel03132512083D

 41 44  0  0  0  0  0  0  0  0999 V2000
    1.0668   -0.0119    0.0734 O   0  0  0  0  0  0  0  0  0  0  0  0
    2.3377   -0.0119    0.0734 C   0  0  0  0  0  0  0  0  0  0  0  0
    3.0477    0.0333   -1.1555 O   0  0  0  0  0  0  0  0  0  0  0  0
    3.0977   -0.0602    1.3889 C   0  0  0  0  0  0  0  0  0  0  0  0
    4.1836    0.7065    1.7436 C   0  0  0  0  0  0  0  0  0  0  0  0
    4.5769    0.4170    3.0230 N   0  0  0  0  0  0  0  0  0  0  0  0
    3.7766   -0.5891    3.5133 C   0  0  0  0  0  0  0  0  0  0  0  0
    3.8518   -1.2610    4.7381 C   0  0  0  0  0  0  0  0  0  0  0  0
    2.9453   -2.2859    4.9230 C   0  0  0  0  0  0  0  0  0  0  0  0
    2.9949   -3.1929    6.4136 Cl  0  0  0  0  0  0  0  0  0  0  0  0
    1.9955   -2.6574    3.9553 C   0  0  0  0  0  0  0  0  0  0  0  0
    1.0395   -3.8064    4.2313 C   0  0  0  0  0  0  0  0  0  0  0  0
    1.0307   -4.9144    3.4002 C   0  0  0  0  0  0  0  0  0  0  0  0
   -0.0902   -5.7586    3.5821 C   0  0  0  0  0  0  0  0  0  0  0  0
   -0.8731   -5.7453    4.6456 C   0  0  0  0  0  0  0  0  0  0  0  0
   -1.7751   -6.8060    4.9239 O   0  0  0  0  0  0  0  0  0  0  0  0
   -2.5997   -6.7523    6.0788 C   0  0  0  0  0  0  0  0  0  0  0  0
   -1.7272   -6.6766    7.3211 C   0  0  0  0  0  0  0  0  0  0  0  0
   -2.1016   -5.5523    8.3023 C   0  0  0  0  0  0  0  0  0  0  0  0
   -1.7896   -6.5438    9.4348 C   0  0  0  0  0  0  0  0  0  0  0  0
   -2.1070   -7.6687    8.4357 O   0  0  0  0  0  0  0  0  0  0  0  0
   -0.7684   -4.6551    5.4641 C   0  0  0  0  0  0  0  0  0  0  0  0
    0.2189   -3.7191    5.2716 C   0  0  0  0  0  0  0  0  0  0  0  0
    1.9304   -1.9768    2.7498 C   0  0  0  0  0  0  0  0  0  0  0  0
    2.8241   -0.9169    2.5138 C   0  0  0  0  0  0  0  0  0  0  0  0
    4.0477    0.0333   -1.1555 H   0  0  0  0  0  0  0  0  0  0  0  0
    4.6546    1.4278    1.1089 H   0  0  0  0  0  0  0  0  0  0  0  0
    5.3370    0.8718    3.5287 H   0  0  0  0  0  0  0  0  0  0  0  0
    4.5690   -0.9965    5.4867 H   0  0  0  0  0  0  0  0  0  0  0  0
    1.8015   -5.1139    2.6854 H   0  0  0  0  0  0  0  0  0  0  0  0
   -0.3194   -6.4564    2.8040 H   0  0  0  0  0  0  0  0  0  0  0  0
   -3.2262   -5.8863    6.0296 H   0  0  0  0  0  0  0  0  0  0  0  0
   -3.2086   -7.6310    6.1235 H   0  0  0  0  0  0  0  0  0  0  0  0
   -0.7751   -6.7094    6.8341 H   0  0  0  0  0  0  0  0  0  0  0  0
   -1.6468   -4.5849    8.2554 H   0  0  0  0  0  0  0  0  0  0  0  0
   -3.1226   -5.2361    8.2526 H   0  0  0  0  0  0  0  0  0  0  0  0
   -2.2709   -6.4824   10.3884 H   0  0  0  0  0  0  0  0  0  0  0  0
   -0.7770   -6.5246    9.7799 H   0  0  0  0  0  0  0  0  0  0  0  0
   -1.4654   -4.5290    6.2661 H   0  0  0  0  0  0  0  0  0  0  0  0
    0.3275   -2.9126    5.9663 H   0  0  0  0  0  0  0  0  0  0  0  0
    1.2100   -2.2540    2.0088 H   0  0  0  0  0  0  0  0  0  0  0  0
  1  2  2  0  0  0  0
  2  3  1  0  0  0  0
  2  4  1  0  0  0  0
  3 26  1  0  0  0  0
  4  5  2  0  0  0  0
  4 25  1  0  0  0  0
  5  6  1  0  0  0  0
  5 27  1  0  0  0  0
  6  7  1  0  0  0  0
  6 28  1  0  0  0  0
  7  8  1  0  0  0  0
  7 25  2  0  0  0  0
  8  9  2  0  0  0  0
  8 29  1  0  0  0  0
  9 10  1  0  0  0  0
  9 11  1  0  0  0  0
 11 12  1  0  0  0  0
 11 24  2  0  0  0  0
 12 13  1  0  0  0  0
 12 23  2  0  0  0  0
 13 14  2  0  0  0  0
 13 30  1  0  0  0  0
 14 15  1  0  0  0  0
 14 31  1  0  0  0  0
 15 16  1  0  0  0  0
 15 22  2  0  0  0  0
 16 17  1  0  0  0  0
 17 18  1  0  0  0  0
 17 32  1  0  0  0  0
 17 33  1  0  0  0  0
 18 19  1  0  0  0  0
 18 21  1  0  0  0  0
 18 34  1  0  0  0  0
 19 20  1  0  0  0  0
 19 35  1  0  0  0  0
 19 36  1  0  0  0  0
 20 21  1  0  0  0  0
 20 37  1  0  0  0  0
 20 38  1  0  0  0  0
 22 23  1  0  0  0  0
 22 39  1  0  0  0  0
 23 40  1  0  0  0  0
 24 25  1  0  0  0  0
 24 41  1  0  0  0  0
M  END
