
 OpenBabel03132512083D

 66 71  0  0  0  0  0  0  0  0999 V2000
    1.0137   -0.0841   -0.0524 C   0  0  0  0  0  0  0  0  0  0  0  0
    0.5070   -1.4578    0.3560 C   0  0  0  0  0  0  0  0  0  0  0  0
    1.0137   -1.7910    1.7498 C   0  0  0  0  0  0  0  0  0  0  0  0
    0.5403   -0.8189    2.6704 O   0  0  0  0  0  0  0  0  0  0  0  0
   -1.0130   -1.4578    0.3560 C   0  0  0  0  0  0  0  0  0  0  0  0
   -1.4863   -1.1465   -0.9461 O   0  0  0  0  0  0  0  0  0  0  0  0
    1.0137   -2.4982   -0.6295 C   0  0  0  0  0  0  0  0  0  0  0  0
    0.4128   -3.7406   -0.5104 C   0  0  0  0  0  0  0  0  0  0  0  0
    0.9923   -4.7384   -1.3293 C   0  0  0  0  0  0  0  0  0  0  0  0
    1.7687   -4.4958   -2.3696 C   0  0  0  0  0  0  0  0  0  0  0  0
    2.0812   -5.5661   -3.4027 C   0  0  0  0  0  0  0  0  0  0  0  0
    0.9969   -5.9887   -4.1539 C   0  0  0  0  0  0  0  0  0  0  0  0
    1.2767   -7.0923   -4.9940 C   0  0  0  0  0  0  0  0  0  0  0  0
    2.4903   -7.4817   -5.3397 C   0  0  0  0  0  0  0  0  0  0  0  0
    2.7249   -8.4409   -6.4953 C   0  0  0  0  0  0  0  0  0  0  0  0
    2.1964   -8.1828   -7.7445 N   0  0  0  0  0  0  0  0  0  0  0  0
    2.2924   -9.1506   -8.7489 C   0  0  0  0  0  0  0  0  0  0  0  0
    1.8554   -9.2094  -10.1429 N   0  0  0  0  0  0  0  0  0  0  0  0
    2.2092  -10.3651  -10.6243 C   0  0  0  0  0  0  0  0  0  0  0  0
    1.9622  -10.8021  -11.9526 O   0  0  0  0  0  0  0  0  0  0  0  0
    1.2817   -9.9526  -12.8646 C   0  0  0  0  0  0  0  0  0  0  0  0
    1.9760   -8.8142  -13.0232 C   0  0  0  0  0  0  0  0  0  0  0  0
    1.5546   -7.8412  -12.0271 O   0  0  0  0  0  0  0  0  0  0  0  0
    0.1336   -8.2477  -11.5923 C   0  0  0  0  0  0  0  0  0  0  0  0
   -0.8685   -7.2945  -12.2096 C   0  0  0  0  0  0  0  0  0  0  0  0
   -0.3614   -5.9683  -12.2289 O   0  0  0  0  0  0  0  0  0  0  0  0
   -1.1144   -7.7393  -13.4727 C   0  0  0  0  0  0  0  0  0  0  0  0
   -0.9965   -9.1888  -13.5202 O   0  0  0  0  0  0  0  0  0  0  0  0
   -0.0933   -9.5922  -12.3394 C   0  0  0  0  0  0  0  0  0  0  0  0
    2.8677  -11.1146   -9.6448 N   0  0  0  0  0  0  0  0  0  0  0  0
    2.9261  -10.3766   -8.4803 C   0  0  0  0  0  0  0  0  0  0  0  0
    3.4533  -10.6184   -7.2168 C   0  0  0  0  0  0  0  0  0  0  0  0
    3.3579   -9.6568   -6.2361 C   0  0  0  0  0  0  0  0  0  0  0  0
    4.0475   -9.9674   -4.6248 Cl  0  0  0  0  0  0  0  0  0  0  0  0
    3.5245   -6.9757   -4.6021 C   0  0  0  0  0  0  0  0  0  0  0  0
    3.3113   -5.9886   -3.6705 C   0  0  0  0  0  0  0  0  0  0  0  0
    2.2765   -3.2301   -2.4675 C   0  0  0  0  0  0  0  0  0  0  0  0
    1.8569   -2.2330   -1.6203 C   0  0  0  0  0  0  0  0  0  0  0  0
    0.6570    0.6483    0.6414 H   0  0  0  0  0  0  0  0  0  0  0  0
    0.6570    0.1505   -1.0335 H   0  0  0  0  0  0  0  0  0  0  0  0
    2.0837   -0.0841   -0.0524 H   0  0  0  0  0  0  0  0  0  0  0  0
    0.6570   -2.7579    2.0372 H   0  0  0  0  0  0  0  0  0  0  0  0
    2.0837   -1.7910    1.7498 H   0  0  0  0  0  0  0  0  0  0  0  0
    0.8737    0.0848    2.4018 H   0  0  0  0  0  0  0  0  0  0  0  0
   -1.3697   -2.4247    0.6434 H   0  0  0  0  0  0  0  0  0  0  0  0
   -1.3697   -0.7253    1.0497 H   0  0  0  0  0  0  0  0  0  0  0  0
   -1.1530   -0.2428   -1.2148 H   0  0  0  0  0  0  0  0  0  0  0  0
   -0.4145   -3.9286    0.1416 H   0  0  0  0  0  0  0  0  0  0  0  0
    0.7871   -5.7607   -1.0889 H   0  0  0  0  0  0  0  0  0  0  0  0
    0.0350   -5.5228   -4.1035 H   0  0  0  0  0  0  0  0  0  0  0  0
    0.4473   -7.6501   -5.3759 H   0  0  0  0  0  0  0  0  0  0  0  0
    1.1867  -10.4732  -13.7945 H   0  0  0  0  0  0  0  0  0  0  0  0
    3.0199   -9.0157  -12.9029 H   0  0  0  0  0  0  0  0  0  0  0  0
    1.7967   -8.4216  -14.0023 H   0  0  0  0  0  0  0  0  0  0  0  0
    0.0292   -8.2736  -10.5277 H   0  0  0  0  0  0  0  0  0  0  0  0
   -1.7732   -7.2916  -11.6383 H   0  0  0  0  0  0  0  0  0  0  0  0
    0.4867   -5.9433  -12.7582 H   0  0  0  0  0  0  0  0  0  0  0  0
   -0.4018   -7.3063  -14.1432 H   0  0  0  0  0  0  0  0  0  0  0  0
   -2.1042   -7.4544  -13.7625 H   0  0  0  0  0  0  0  0  0  0  0  0
   -0.5143  -10.3936  -11.7689 H   0  0  0  0  0  0  0  0  0  0  0  0
    3.2438  -12.0543   -9.7706 H   0  0  0  0  0  0  0  0  0  0  0  0
    3.9330  -11.5514   -7.0067 H   0  0  0  0  0  0  0  0  0  0  0  0
    4.5140   -7.3539   -4.7526 H   0  0  0  0  0  0  0  0  0  0  0  0
    4.1440   -5.5563   -3.1561 H   0  0  0  0  0  0  0  0  0  0  0  0
    3.0111   -3.0129   -3.2145 H   0  0  0  0  0  0  0  0  0  0  0  0
    2.2129   -1.2337   -1.7604 H   0  0  0  0  0  0  0  0  0  0  0  0
  1  2  1  0  0  0  0
  1 39  1  0  0  0  0
  1 40  1  0  0  0  0
  1 41  1  0  0  0  0
  2  3  1  0  0  0  0
  2  5  1  0  0  0  0
  2  7  1  0  0  0  0
  3  4  1  0  0  0  0
  3 42  1  0  0  0  0
  3 43  1  0  0  0  0
  4 44  1  0  0  0  0
  5  6  1  0  0  0  0
  5 45  1  0  0  0  0
  5 46  1  0  0  0  0
  6 47  1  0  0  0  0
  7  8  1  0  0  0  0
  7 38  2  0  0  0  0
  8  9  2  0  0  0  0
  8 48  1  0  0  0  0
  9 10  1  0  0  0  0
  9 49  1  0  0  0  0
 10 11  1  0  0  0  0
 10 37  2  0  0  0  0
 11 12  1  0  0  0  0
 11 36  2  0  0  0  0
 12 13  2  0  0  0  0
 12 50  1  0  0  0  0
 13 14  1  0  0  0  0
 13 51  1  0  0  0  0
 14 15  1  0  0  0  0
 14 35  2  0  0  0  0
 15 16  1  0  0  0  0
 15 33  2  0  0  0  0
 16 17  2  0  0  0  0
 17 18  1  0  0  0  0
 17 31  1  0  0  0  0
 18 19  2  0  0  0  0
 19 20  1  0  0  0  0
 19 30  1  0  0  0  0
 20 21  1  0  0  0  0
 21 22  1  0  0  0  0
 21 29  1  0  0  0  0
 21 52  1  0  0  0  0
 22 23  1  0  0  0  0
 22 53  1  0  0  0  0
 22 54  1  0  0  0  0
 23 24  1  0  0  0  0
 24 25  1  0  0  0  0
 24 29  1  0  0  0  0
 24 55  1  0  0  0  0
 25 26  1  0  0  0  0
 25 27  1  0  0  0  0
 25 56  1  0  0  0  0
 26 57  1  0  0  0  0
 27 28  1  0  0  0  0
 27 58  1  0  0  0  0
 27 59  1  0  0  0  0
 28 29  1  0  0  0  0
 29 60  1  0  0  0  0
 30 31  1  0  0  0  0
 30 61  1  0  0  0  0
 31 32  2  0  0  0  0
 32 33  1  0  0  0  0
 32 62  1  0  0  0  0
 33 34  1  0  0  0  0
 35 36  1  0  0  0  0
 35 63  1  0  0  0  0
 36 64  1  0  0  0  0
 37 38  1  0  0  0  0
 37 65  1  0  0  0  0
 38 66  1  0  0  0  0
M  END
