
 OpenBabel03132512083D

 66 71  0  0  0  0  0  0  0  0999 V2000
    0.9547    0.0463   -0.0762 C   0  0  0  0  0  0  0  0  0  0  0  0
    0.4480    1.4648   -0.2800 C   0  0  0  0  0  0  0  0  0  0  0  0
    0.9380    1.9800   -1.5666 N   0  0  0  0  0  0  0  0  0  0  0  0
   -0.0173    2.3953   -2.6039 C   0  0  0  0  0  0  0  0  0  0  0  0
    0.1981    3.8637   -2.9323 C   0  0  0  0  0  0  0  0  0  0  0  0
    2.3832    2.0798   -1.8160 C   0  0  0  0  0  0  0  0  0  0  0  0
    2.8954    3.2303   -2.3927 C   0  0  0  0  0  0  0  0  0  0  0  0
    4.2287    3.0988   -2.8477 C   0  0  0  0  0  0  0  0  0  0  0  0
    5.0588    2.1443   -2.4685 C   0  0  0  0  0  0  0  0  0  0  0  0
    6.5557    2.2404   -2.7142 C   0  0  0  0  0  0  0  0  0  0  0  0
    7.2685    3.2929   -2.1639 C   0  0  0  0  0  0  0  0  0  0  0  0
    8.5726    3.4407   -2.6926 C   0  0  0  0  0  0  0  0  0  0  0  0
    9.2207    2.5036   -3.3602 C   0  0  0  0  0  0  0  0  0  0  0  0
   10.7186    2.5855   -3.6052 C   0  0  0  0  0  0  0  0  0  0  0  0
   11.5885    2.6315   -2.5339 N   0  0  0  0  0  0  0  0  0  0  0  0
   12.9650    2.7142   -2.7644 C   0  0  0  0  0  0  0  0  0  0  0  0
   14.1355    2.7796   -1.8907 N   0  0  0  0  0  0  0  0  0  0  0  0
   15.1938    2.8453   -2.6444 C   0  0  0  0  0  0  0  0  0  0  0  0
   16.5286    2.9221   -2.1661 O   0  0  0  0  0  0  0  0  0  0  0  0
   16.7827    2.9312   -0.7691 C   0  0  0  0  0  0  0  0  0  0  0  0
   16.3085    1.8051   -0.2121 C   0  0  0  0  0  0  0  0  0  0  0  0
   14.9168    1.9950    0.1668 O   0  0  0  0  0  0  0  0  0  0  0  0
   14.7125    3.5127    0.3353 C   0  0  0  0  0  0  0  0  0  0  0  0
   14.6314    3.8439    1.8109 C   0  0  0  0  0  0  0  0  0  0  0  0
   13.9265    2.8349    2.5190 O   0  0  0  0  0  0  0  0  0  0  0  0
   15.9103    3.9533    2.2648 C   0  0  0  0  0  0  0  0  0  0  0  0
   16.7725    4.4514    1.2039 O   0  0  0  0  0  0  0  0  0  0  0  0
   16.0741    4.1056   -0.1248 C   0  0  0  0  0  0  0  0  0  0  0  0
   14.8270    2.8293   -3.9935 N   0  0  0  0  0  0  0  0  0  0  0  0
   13.4523    2.7488   -4.0828 C   0  0  0  0  0  0  0  0  0  0  0  0
   12.5615    2.7007   -5.1490 C   0  0  0  0  0  0  0  0  0  0  0  0
   11.2081    2.6143   -4.9112 C   0  0  0  0  0  0  0  0  0  0  0  0
   10.0740    2.5388   -6.2811 Cl  0  0  0  0  0  0  0  0  0  0  0  0
    8.4719    1.4557   -3.8192 C   0  0  0  0  0  0  0  0  0  0  0  0
    7.1555    1.3137   -3.4523 C   0  0  0  0  0  0  0  0  0  0  0  0
    4.4993    1.0649   -1.8431 C   0  0  0  0  0  0  0  0  0  0  0  0
    3.1731    1.0654   -1.4838 C   0  0  0  0  0  0  0  0  0  0  0  0
    0.5980   -0.5773   -0.8692 H   0  0  0  0  0  0  0  0  0  0  0  0
    0.5980   -0.3287    0.8603 H   0  0  0  0  0  0  0  0  0  0  0  0
    2.0247    0.0463   -0.0762 H   0  0  0  0  0  0  0  0  0  0  0  0
   -0.6220    1.4648   -0.2800 H   0  0  0  0  0  0  0  0  0  0  0  0
    0.8047    2.0883    0.5130 H   0  0  0  0  0  0  0  0  0  0  0  0
    0.1343    1.8069   -3.4846 H   0  0  0  0  0  0  0  0  0  0  0  0
   -1.0158    2.2524   -2.2469 H   0  0  0  0  0  0  0  0  0  0  0  0
    1.1966    4.0066   -3.2892 H   0  0  0  0  0  0  0  0  0  0  0  0
   -0.4972    4.1660   -3.6873 H   0  0  0  0  0  0  0  0  0  0  0  0
    0.0465    4.4521   -2.0515 H   0  0  0  0  0  0  0  0  0  0  0  0
    2.3338    4.1363   -2.4857 H   0  0  0  0  0  0  0  0  0  0  0  0
    4.5895    3.8232   -3.5478 H   0  0  0  0  0  0  0  0  0  0  0  0
    6.8691    3.9358   -1.4075 H   0  0  0  0  0  0  0  0  0  0  0  0
    9.0680    4.3769   -2.5410 H   0  0  0  0  0  0  0  0  0  0  0  0
   17.8393    3.0053   -0.6169 H   0  0  0  0  0  0  0  0  0  0  0  0
   16.3780    1.0038   -0.9178 H   0  0  0  0  0  0  0  0  0  0  0  0
   16.8850    1.5683    0.6577 H   0  0  0  0  0  0  0  0  0  0  0  0
   13.8440    3.8629   -0.1823 H   0  0  0  0  0  0  0  0  0  0  0  0
   14.1110    4.7682    1.9520 H   0  0  0  0  0  0  0  0  0  0  0  0
   14.3936    1.9583    2.4031 H   0  0  0  0  0  0  0  0  0  0  0  0
   16.2566    2.9900    2.5764 H   0  0  0  0  0  0  0  0  0  0  0  0
   15.9364    4.6324    3.0912 H   0  0  0  0  0  0  0  0  0  0  0  0
   16.0333    4.9458   -0.7861 H   0  0  0  0  0  0  0  0  0  0  0  0
   15.4710    2.8704   -4.7834 H   0  0  0  0  0  0  0  0  0  0  0  0
   12.9275    2.7307   -6.1540 H   0  0  0  0  0  0  0  0  0  0  0  0
    8.9176    0.7359   -4.4735 H   0  0  0  0  0  0  0  0  0  0  0  0
    6.6086    0.4485   -3.7641 H   0  0  0  0  0  0  0  0  0  0  0  0
    5.1029    0.2074   -1.6303 H   0  0  0  0  0  0  0  0  0  0  0  0
    2.7731    0.2409   -0.9314 H   0  0  0  0  0  0  0  0  0  0  0  0
  1  2  1  0  0  0  0
  1 38  1  0  0  0  0
  1 39  1  0  0  0  0
  1 40  1  0  0  0  0
  2  3  1  0  0  0  0
  2 41  1  0  0  0  0
  2 42  1  0  0  0  0
  3  4  1  0  0  0  0
  3  6  1  0  0  0  0
  4  5  1  0  0  0  0
  4 43  1  0  0  0  0
  4 44  1  0  0  0  0
  5 45  1  0  0  0  0
  5 46  1  0  0  0  0
  5 47  1  0  0  0  0
  6  7  1  0  0  0  0
  6 37  2  0  0  0  0
  7  8  2  0  0  0  0
  7 48  1  0  0  0  0
  8  9  1  0  0  0  0
  8 49  1  0  0  0  0
  9 10  1  0  0  0  0
  9 36  2  0  0  0  0
 10 11  1  0  0  0  0
 10 35  2  0  0  0  0
 11 12  2  0  0  0  0
 11 50  1  0  0  0  0
 12 13  1  0  0  0  0
 12 51  1  0  0  0  0
 13 14  1  0  0  0  0
 13 34  2  0  0  0  0
 14 15  1  0  0  0  0
 14 32  2  0  0  0  0
 15 16  2  0  0  0  0
 16 17  1  0  0  0  0
 16 30  1  0  0  0  0
 17 18  2  0  0  0  0
 18 19  1  0  0  0  0
 18 29  1  0  0  0  0
 19 20  1  0  0  0  0
 20 21  1  0  0  0  0
 20 28  1  0  0  0  0
 20 52  1  0  0  0  0
 21 22  1  0  0  0  0
 21 53  1  0  0  0  0
 21 54  1  0  0  0  0
 22 23  1  0  0  0  0
 23 24  1  0  0  0  0
 23 28  1  0  0  0  0
 23 55  1  0  0  0  0
 24 25  1  0  0  0  0
 24 26  1  0  0  0  0
 24 56  1  0  0  0  0
 25 57  1  0  0  0  0
 26 27  1  0  0  0  0
 26 58  1  0  0  0  0
 26 59  1  0  0  0  0
 27 28  1  0  0  0  0
 28 60  1  0  0  0  0
 29 30  1  0  0  0  0
 29 61  1  0  0  0  0
 30 31  2  0  0  0  0
 31 32  1  0  0  0  0
 31 62  1  0  0  0  0
 32 33  1  0  0  0  0
 34 35  1  0  0  0  0
 34 63  1  0  0  0  0
 35 64  1  0  0  0  0
 36 37  1  0  0  0  0
 36 65  1  0  0  0  0
 37 66  1  0  0  0  0
M  END
