
 OpenBabel03132512083D

 70 75  0  0  0  0  0  0  0  0999 V2000
    0.9590   -0.0815    0.0409 C   0  0  0  0  0  0  0  0  0  0  0  0
    0.4690    1.1685    0.6393 N   0  0  0  0  0  0  0  0  0  0  0  0
   -1.0010    1.1685    0.6393 C   0  0  0  0  0  0  0  0  0  0  0  0
    1.0557    1.2963    2.2937 S   0  0  0  0  0  0  0  0  0  0  0  0
    0.4523   -0.1115    3.2583 C   0  0  0  0  0  0  0  0  0  0  0  0
    2.5861    1.2963    2.2937 O   0  0  0  0  0  0  0  0  0  0  0  0
    0.5306    2.6358    2.9350 N   0  0  0  0  0  0  0  0  0  0  0  0
    0.8857    2.9761    4.3203 C   0  0  0  0  0  0  0  0  0  0  0  0
    0.3705    1.8945    5.2558 C   0  0  0  0  0  0  0  0  0  0  0  0
   -0.0789    2.2053    6.5285 C   0  0  0  0  0  0  0  0  0  0  0  0
   -0.0653    1.1104    7.4246 C   0  0  0  0  0  0  0  0  0  0  0  0
    0.0051   -0.1565    7.0582 C   0  0  0  0  0  0  0  0  0  0  0  0
   -0.3233   -1.2875    8.0191 C   0  0  0  0  0  0  0  0  0  0  0  0
   -1.5297   -1.2628    8.6991 C   0  0  0  0  0  0  0  0  0  0  0  0
   -1.5434   -2.0553    9.8712 C   0  0  0  0  0  0  0  0  0  0  0  0
   -0.6730   -3.0117   10.1389 C   0  0  0  0  0  0  0  0  0  0  0  0
   -0.9265   -4.0442   11.2252 C   0  0  0  0  0  0  0  0  0  0  0  0
   -1.9514   -4.9497   11.0354 N   0  0  0  0  0  0  0  0  0  0  0  0
   -2.1225   -6.0001   11.9420 C   0  0  0  0  0  0  0  0  0  0  0  0
   -3.0743   -7.1053   12.0429 N   0  0  0  0  0  0  0  0  0  0  0  0
   -2.7708   -7.7989   13.1008 C   0  0  0  0  0  0  0  0  0  0  0  0
   -3.4657   -8.9567   13.5402 O   0  0  0  0  0  0  0  0  0  0  0  0
   -4.5827   -9.4358   12.8060 C   0  0  0  0  0  0  0  0  0  0  0  0
   -4.1937   -9.7410   11.5575 C   0  0  0  0  0  0  0  0  0  0  0  0
   -4.3239   -8.5699   10.7043 O   0  0  0  0  0  0  0  0  0  0  0  0
   -5.3706   -7.6571   11.3711 C   0  0  0  0  0  0  0  0  0  0  0  0
   -6.6692   -7.7386   10.5960 C   0  0  0  0  0  0  0  0  0  0  0  0
   -6.4221   -7.8250    9.2004 O   0  0  0  0  0  0  0  0  0  0  0  0
   -7.3298   -8.8425   11.0420 C   0  0  0  0  0  0  0  0  0  0  0  0
   -7.0203   -9.0731   12.4448 O   0  0  0  0  0  0  0  0  0  0  0  0
   -5.6692   -8.3835   12.7129 C   0  0  0  0  0  0  0  0  0  0  0  0
   -1.6617   -7.2397   13.7426 N   0  0  0  0  0  0  0  0  0  0  0  0
   -1.2505   -6.1269   13.0377 C   0  0  0  0  0  0  0  0  0  0  0  0
   -0.2235   -5.2064   13.2121 C   0  0  0  0  0  0  0  0  0  0  0  0
   -0.0606   -4.1784   12.3108 C   0  0  0  0  0  0  0  0  0  0  0  0
    1.2651   -3.0114   12.5325 Cl  0  0  0  0  0  0  0  0  0  0  0  0
    0.4684   -3.0232    9.3862 C   0  0  0  0  0  0  0  0  0  0  0  0
    0.6101   -2.1879    8.3046 C   0  0  0  0  0  0  0  0  0  0  0  0
    0.3892   -0.3959    5.7680 C   0  0  0  0  0  0  0  0  0  0  0  0
    0.5242    0.6338    4.8683 C   0  0  0  0  0  0  0  0  0  0  0  0
    0.6023   -0.1592   -0.9650 H   0  0  0  0  0  0  0  0  0  0  0  0
    0.6023   -0.9138    0.6110 H   0  0  0  0  0  0  0  0  0  0  0  0
    2.0290   -0.0815    0.0409 H   0  0  0  0  0  0  0  0  0  0  0  0
   -1.3577    0.3363    1.2095 H   0  0  0  0  0  0  0  0  0  0  0  0
   -1.3577    2.0784    1.0750 H   0  0  0  0  0  0  0  0  0  0  0  0
   -1.3577    1.0908   -0.3665 H   0  0  0  0  0  0  0  0  0  0  0  0
    0.8090   -1.0214    2.8226 H   0  0  0  0  0  0  0  0  0  0  0  0
    0.8090   -0.0338    4.2641 H   0  0  0  0  0  0  0  0  0  0  0  0
   -0.6177   -0.1115    3.2583 H   0  0  0  0  0  0  0  0  0  0  0  0
    1.9497    3.0469    4.4086 H   0  0  0  0  0  0  0  0  0  0  0  0
    0.4429    3.9144    4.5818 H   0  0  0  0  0  0  0  0  0  0  0  0
   -0.4066    3.1846    6.8087 H   0  0  0  0  0  0  0  0  0  0  0  0
   -0.1155    1.3236    8.4720 H   0  0  0  0  0  0  0  0  0  0  0  0
   -2.3746   -0.6958    8.3681 H   0  0  0  0  0  0  0  0  0  0  0  0
   -2.3125   -1.8665   10.5908 H   0  0  0  0  0  0  0  0  0  0  0  0
   -4.9672  -10.2960   13.3130 H   0  0  0  0  0  0  0  0  0  0  0  0
   -3.1718  -10.0577   11.5719 H   0  0  0  0  0  0  0  0  0  0  0  0
   -4.8084  -10.5294   11.1760 H   0  0  0  0  0  0  0  0  0  0  0  0
   -5.0340   -6.6441   11.4453 H   0  0  0  0  0  0  0  0  0  0  0  0
   -7.2576   -6.8624   10.7715 H   0  0  0  0  0  0  0  0  0  0  0  0
   -5.8723   -8.6380    9.0089 H   0  0  0  0  0  0  0  0  0  0  0  0
   -7.0214   -9.6922   10.4694 H   0  0  0  0  0  0  0  0  0  0  0  0
   -8.3836   -8.6941   10.9311 H   0  0  0  0  0  0  0  0  0  0  0  0
   -5.6979   -7.7749   13.5925 H   0  0  0  0  0  0  0  0  0  0  0  0
   -1.2271   -7.5963   14.5937 H   0  0  0  0  0  0  0  0  0  0  0  0
    0.4402   -5.2967   14.0466 H   0  0  0  0  0  0  0  0  0  0  0  0
    1.2628   -3.6924    9.6433 H   0  0  0  0  0  0  0  0  0  0  0  0
    1.4803   -2.2636    7.6866 H   0  0  0  0  0  0  0  0  0  0  0  0
    0.5874   -1.3995    5.4545 H   0  0  0  0  0  0  0  0  0  0  0  0
    0.7552    0.4177    3.8461 H   0  0  0  0  0  0  0  0  0  0  0  0
  1  2  1  0  0  0  0
  1 41  1  0  0  0  0
  1 42  1  0  0  0  0
  1 43  1  0  0  0  0
  2  3  1  0  0  0  0
  2  4  1  0  0  0  0
  3 44  1  0  0  0  0
  3 45  1  0  0  0  0
  3 46  1  0  0  0  0
  4  5  1  0  0  0  0
  4  6  2  0  0  0  0
  4  7  2  0  0  0  0
  5 47  1  0  0  0  0
  5 48  1  0  0  0  0
  5 49  1  0  0  0  0
  7  8  1  0  0  0  0
  8  9  1  0  0  0  0
  8 50  1  0  0  0  0
  8 51  1  0  0  0  0
  9 10  1  0  0  0  0
  9 40  2  0  0  0  0
 10 11  2  0  0  0  0
 10 52  1  0  0  0  0
 11 12  1  0  0  0  0
 11 53  1  0  0  0  0
 12 13  1  0  0  0  0
 12 39  2  0  0  0  0
 13 14  1  0  0  0  0
 13 38  2  0  0  0  0
 14 15  2  0  0  0  0
 14 54  1  0  0  0  0
 15 16  1  0  0  0  0
 15 55  1  0  0  0  0
 16 17  1  0  0  0  0
 16 37  2  0  0  0  0
 17 18  1  0  0  0  0
 17 35  2  0  0  0  0
 18 19  2  0  0  0  0
 19 20  1  0  0  0  0
 19 33  1  0  0  0  0
 20 21  2  0  0  0  0
 21 22  1  0  0  0  0
 21 32  1  0  0  0  0
 22 23  1  0  0  0  0
 23 24  1  0  0  0  0
 23 31  1  0  0  0  0
 23 56  1  0  0  0  0
 24 25  1  0  0  0  0
 24 57  1  0  0  0  0
 24 58  1  0  0  0  0
 25 26  1  0  0  0  0
 26 27  1  0  0  0  0
 26 31  1  0  0  0  0
 26 59  1  0  0  0  0
 27 28  1  0  0  0  0
 27 29  1  0  0  0  0
 27 60  1  0  0  0  0
 28 61  1  0  0  0  0
 29 30  1  0  0  0  0
 29 62  1  0  0  0  0
 29 63  1  0  0  0  0
 30 31  1  0  0  0  0
 31 64  1  0  0  0  0
 32 33  1  0  0  0  0
 32 65  1  0  0  0  0
 33 34  2  0  0  0  0
 34 35  1  0  0  0  0
 34 66  1  0  0  0  0
 35 36  1  0  0  0  0
 37 38  1  0  0  0  0
 37 67  1  0  0  0  0
 38 68  1  0  0  0  0
 39 40  1  0  0  0  0
 39 69  1  0  0  0  0
 40 70  1  0  0  0  0
M  END
