REMARK  Name = 
REMARK  6 active torsions:
REMARK  status: ('A' for Active; 'I' for Inactive)
REMARK    1  A    between atoms: N_1  and  S_2
REMARK    2  A    between atoms: S_2  and  C_5
REMARK    3  A    between atoms: C_9  and  C_10
REMARK    4  A    between atoms: C_16  and  N_17
REMARK    5  A    between atoms: C_18  and  C_20
REMARK    6  A    between atoms: C_20  and  C_21
REMARK                            x       y       z     vdW  Elec       q    Type
REMARK                         _______ _______ _______ _____ _____    ______ ____
ROOT
ATOM      1  C   UNL     1       1.272   2.433  -4.723  0.00  0.00    +0.000 A 
ATOM      2  N   UNL     1       0.700   3.348  -3.842  0.00  0.00    +0.000 NA
ATOM      3  N   UNL     1       0.644   4.652  -4.169  0.00  0.00    +0.000 N 
ATOM      4  C   UNL     1       1.186   5.110  -5.457  0.00  0.00    +0.000 A 
ATOM      5  C   UNL     1       2.054   6.188  -5.514  0.00  0.00    +0.000 A 
ATOM      6  C   UNL     1       2.340   6.624  -6.830  0.00  0.00    +0.000 A 
ATOM      7  C   UNL     1       2.131   5.906  -7.919  0.00  0.00    +0.000 A 
ATOM      8  C   UNL     1       1.318   4.815  -7.781  0.00  0.00    +0.000 A 
ATOM      9  C   UNL     1       0.891   4.404  -6.542  0.00  0.00    +0.000 A 
ATOM     10  H   UNL     1       0.225   5.322  -3.524  0.00  0.00    +0.000 HD
ENDROOT
BRANCH   1  15
ATOM     11  C   UNL     1       0.949  -0.723  -2.763  0.00  0.00    +0.000 A 
ATOM     12  C   UNL     1       1.450  -1.689  -3.620  0.00  0.00    +0.000 A 
ATOM     13  C   UNL     1       2.070  -1.161  -4.778  0.00  0.00    +0.000 A 
ATOM     14  C   UNL     1       1.898   0.070  -5.224  0.00  0.00    +0.000 A 
ATOM     15  C   UNL     1       1.335   0.960  -4.353  0.00  0.00    +0.000 A 
ATOM     16  C   UNL     1       0.825   0.542  -3.147  0.00  0.00    +0.000 A 
BRANCH  11  17
ATOM     17  S   UNL     1       0.345  -1.186  -1.120  0.00  0.00    +0.000 S 
ATOM     18  O   UNL     1       0.856  -2.584  -0.765  0.00  0.00    +0.000 OA
ATOM     19  O   UNL     1      -1.185  -1.186  -1.120  0.00  0.00    +0.000 OA
BRANCH  17  20
ATOM     20  N   UNL     1       0.932  -0.028   0.068  0.00  0.00    +0.000 NA
ATOM     21  H   UNL     1       0.592  -0.288   0.994  0.00  0.00    +0.000 HD
ATOM     22  H   UNL     1       1.952  -0.028   0.068  0.00  0.00    +0.000 HD
ENDBRANCH  17  20
ENDBRANCH  11  17
ENDBRANCH   1  15
BRANCH   7  23
ATOM     23  N   UNL     1       2.739   6.262  -9.209  0.00  0.00    +0.000 N 
ATOM     24  C   UNL     1       3.606   7.444  -9.312  0.00  0.00    +0.000 C 
ATOM     25  O   UNL     1       4.132   7.751 -10.428  0.00  0.00    +0.000 OA
ATOM     26  H   UNL     1       2.558   5.688 -10.033  0.00  0.00    +0.000 HD
BRANCH  24  27
ATOM     27  C   UNL     1       3.875   8.299  -8.084  0.00  0.00    +0.000 C 
BRANCH  27  28
ATOM     28  C   UNL     1       2.562   8.852  -7.555  0.00  0.00    +0.000 A 
ATOM     29  C   UNL     1       2.379  10.225  -7.529  0.00  0.00    +0.000 A 
ATOM     30  C   UNL     1       1.277  10.641  -6.745  0.00  0.00    +0.000 A 
ATOM     31  C   UNL     1       0.289   9.852  -6.362  0.00  0.00    +0.000 A 
ATOM     32  C   UNL     1       0.506   8.507  -6.477  0.00  0.00    +0.000 A 
ATOM     33  C   UNL     1       1.623   8.023  -7.114  0.00  0.00    +0.000 A 
ENDBRANCH  27  28
ENDBRANCH  24  27
ENDBRANCH   7  23
TORSDOF 6
