REMARK  Name = 
REMARK  12 active torsions:
REMARK  status: ('A' for Active; 'I' for Inactive)
REMARK    1  A    between atoms: C_1  and  C_2
REMARK    2  A    between atoms: C_2  and  N_3
REMARK    3  A    between atoms: N_3  and  C_4
REMARK    4  A    between atoms: N_3  and  C_6
REMARK    5  A    between atoms: C_4  and  C_5
REMARK    6  A    between atoms: C_6  and  C_7
REMARK    7  A    between atoms: C_7  and  N_8
REMARK    8  A    between atoms: C_9  and  C_11
REMARK    9  A    between atoms: C_12  and  C_13
REMARK   10  A    between atoms: C_15  and  C_16
REMARK   11  A    between atoms: C_24  and  C_25
REMARK   12  A    between atoms: C_36  and  C_37
REMARK                            x       y       z     vdW  Elec       q    Type
REMARK                         _______ _______ _______ _____ _____    ______ ____
ROOT
ATOM      1  C   UNL     1       8.469   1.938  -0.267  0.00  0.00    +0.000 C 
ATOM      2  C   UNL     1       9.466   2.788  -0.571  0.00  0.00    +0.000 C 
ATOM      3  C   UNL     1       9.263   3.899  -1.549  0.00  0.00    +0.000 C 
ATOM      4  O   UNL     1       8.257   4.152  -2.213  0.00  0.00    +0.000 OA
ATOM      5  N   UNL     1      10.411   4.620  -1.576  0.00  0.00    +0.000 N 
ATOM      6  C   UNL     1      11.371   4.080  -0.713  0.00  0.00    +0.000 A 
ATOM      7  C   UNL     1      12.644   4.554  -0.500  0.00  0.00    +0.000 A 
ATOM      8  C   UNL     1      13.458   3.836   0.369  0.00  0.00    +0.000 A 
ATOM      9  C   UNL     1      12.981   2.674   0.958  0.00  0.00    +0.000 A 
ATOM     10  C   UNL     1      11.683   2.227   0.744  0.00  0.00    +0.000 A 
ATOM     11  C   UNL     1      10.841   2.948  -0.092  0.00  0.00    +0.000 A 
ATOM     12  H   UNL     1      10.556   5.450  -2.151  0.00  0.00    +0.000 HD
ENDROOT
BRANCH   9  13
ATOM     13  C   UNL     1      13.903   1.868   1.859  0.00  0.00    +0.000 A 
ATOM     14  N   UNL     1      14.407   2.245   3.018  0.00  0.00    +0.000 NA
ATOM     15  N   UNL     1      15.080   1.157   3.513  0.00  0.00    +0.000 N 
ATOM     16  C   UNL     1      15.009   0.097   2.668  0.00  0.00    +0.000 A 
ATOM     17  C   UNL     1      15.552  -1.196   2.755  0.00  0.00    +0.000 A 
ATOM     18  C   UNL     1      15.294  -2.052   1.715  0.00  0.00    +0.000 A 
ATOM     19  C   UNL     1      14.517  -1.622   0.620  0.00  0.00    +0.000 A 
ATOM     20  C   UNL     1      13.975  -0.360   0.510  0.00  0.00    +0.000 A 
ATOM     21  C   UNL     1      14.238   0.517   1.565  0.00  0.00    +0.000 A 
ATOM     22  H   UNL     1      15.572   1.145   4.406  0.00  0.00    +0.000 HD
ENDBRANCH   9  13
BRANCH   1  27
ATOM     23  C   UNL     1       4.934   2.319  -1.420  0.00  0.00    +0.000 A 
ATOM     24  C   UNL     1       5.588   2.116  -2.610  0.00  0.00    +0.000 A 
ATOM     25  C   UNL     1       5.084   2.079  -4.011  0.00  0.00    +0.000 C 
ATOM     26  N   UNL     1       6.911   1.945  -2.325  0.00  0.00    +0.000 N 
ATOM     27  C   UNL     1       7.128   2.056  -0.973  0.00  0.00    +0.000 A 
ATOM     28  C   UNL     1       5.915   2.293  -0.375  0.00  0.00    +0.000 A 
ATOM     29  C   UNL     1       5.643   2.450   1.100  0.00  0.00    +0.000 C 
ATOM     30  H   UNL     1       7.636   1.761  -3.018  0.00  0.00    +0.000 HD
BRANCH  23  32
ATOM     31  N   UNL     1       2.485   1.674  -1.958  0.00  0.00    +0.000 N 
ATOM     32  C   UNL     1       3.440   2.532  -1.242  0.00  0.00    +0.000 C 
ATOM     33  O   UNL     1       3.016   3.452  -0.474  0.00  0.00    +0.000 OA
ATOM     34  H   UNL     1       1.482   1.817  -1.839  0.00  0.00    +0.000 HD
BRANCH  31  35
ATOM     35  C   UNL     1       2.975   0.610  -2.846  0.00  0.00    +0.000 C 
BRANCH  35  36
ATOM     36  C   UNL     1       2.468  -0.735  -2.353  0.00  0.00    +0.000 C 
BRANCH  36  37
ATOM     37  N   UNL     1       0.998  -0.735  -2.353  0.00  0.00    +0.000 NA
BRANCH  37  39
ATOM     38  C   UNL     1       1.015   0.084  -0.053  0.00  0.00    +0.000 C 
ATOM     39  C   UNL     1       0.508   0.329  -1.465  0.00  0.00    +0.000 C 
ENDBRANCH  37  39
BRANCH  37  40
ATOM     40  C   UNL     1       0.508  -0.498  -3.718  0.00  0.00    +0.000 C 
ATOM     41  C   UNL     1       1.015   0.847  -4.212  0.00  0.00    +0.000 C 
ENDBRANCH  37  40
ENDBRANCH  36  37
ENDBRANCH  35  36
ENDBRANCH  31  35
ENDBRANCH  23  32
ENDBRANCH   1  27
TORSDOF 8
