REMARK  Name = 
REMARK  5 active torsions:
REMARK  status: ('A' for Active; 'I' for Inactive)
REMARK    1  A    between atoms: C_2  and  O_3
REMARK    2  A    between atoms: C_2  and  C_4
REMARK    3  A    between atoms: C_12  and  O_13
REMARK    4  A    between atoms: O_13  and  C_14
REMARK    5  A    between atoms: C_14  and  C_15
REMARK                            x       y       z     vdW  Elec       q    Type
REMARK                         _______ _______ _______ _____ _____    ______ ____
ROOT
ATOM      1  C   UNL     1       3.055   0.680   1.199  0.00  0.00    +0.000 C 
ATOM      2  C   UNL     1       3.291   2.194   0.940  0.00  0.00    +0.000 C 
ATOM      3  C   UNL     1       3.966   2.879   2.144  0.00  0.00    +0.000 C 
ATOM      4  C   UNL     1       4.869   1.959   2.878  0.00  0.00    +0.000 A 
ATOM      5  N   UNL     1       5.609   2.340   3.982  0.00  0.00    +0.000 N 
ATOM      6  C   UNL     1       6.271   1.236   4.478  0.00  0.00    +0.000 A 
ATOM      7  C   UNL     1       7.167   1.135   5.542  0.00  0.00    +0.000 A 
ATOM      8  C   UNL     1       7.705  -0.116   5.794  0.00  0.00    +0.000 A 
ATOM      9  C   UNL     1       7.367  -1.231   5.020  0.00  0.00    +0.000 A 
ATOM     10  C   UNL     1       6.493  -1.115   3.951  0.00  0.00    +0.000 A 
ATOM     11  C   UNL     1       5.937   0.132   3.658  0.00  0.00    +0.000 A 
ATOM     12  C   UNL     1       5.048   0.628   2.641  0.00  0.00    +0.000 A 
ATOM     13  C   UNL     1       4.386  -0.093   1.494  0.00  0.00    +0.000 C 
ATOM     14  H   UNL     1       5.658   3.283   4.366  0.00  0.00    +0.000 HD
ENDROOT
BRANCH   1  16
ATOM     15  O   UNL     1       1.024   0.095   0.020  0.00  0.00    +0.000 OA
ATOM     16  C   UNL     1       2.295   0.095   0.020  0.00  0.00    +0.000 C 
BRANCH  16  17
ATOM     17  O   UNL     1       3.005  -0.451  -1.082  0.00  0.00    +0.000 OA
ATOM     18  H   UNL     1       4.005  -0.451  -1.082  0.00  0.00    +0.000 HD
ENDBRANCH  16  17
ENDBRANCH   1  16
BRANCH   9  19
ATOM     19  O   UNL     1       7.926  -2.498   5.333  0.00  0.00    +0.000 OA
BRANCH  19  20
ATOM     20  C   UNL     1       7.589  -3.636   4.554  0.00  0.00    +0.000 C 
BRANCH  20  21
ATOM     21  C   UNL     1       6.089  -3.870   4.622  0.00  0.00    +0.000 A 
ATOM     22  C   UNL     1       5.233  -2.781   4.650  0.00  0.00    +0.000 A 
ATOM     23  C   UNL     1       3.902  -3.107   5.005  0.00  0.00    +0.000 A 
ATOM     24  C   UNL     1       3.394  -4.325   4.967  0.00  0.00    +0.000 A 
ATOM     25  C   UNL     1       4.288  -5.355   4.870  0.00  0.00    +0.000 A 
ATOM     26  C   UNL     1       5.623  -5.113   4.654  0.00  0.00    +0.000 A 
ENDBRANCH  20  21
ENDBRANCH  19  20
ENDBRANCH   9  19
TORSDOF 5
