
 OpenBabel03132512083D

 45 48  0  0  0  0  0  0  0  0999 V2000
    1.0286    0.0478    0.0830 C   0  0  0  0  0  0  0  0  0  0  0  0
    0.5552   -1.2421   -0.2751 O   0  0  0  0  0  0  0  0  0  0  0  0
    0.8983   -1.7997   -1.5353 C   0  0  0  0  0  0  0  0  0  0  0  0
    2.2111   -1.7362   -2.0229 C   0  0  0  0  0  0  0  0  0  0  0  0
    2.4764   -2.1567   -3.2958 C   0  0  0  0  0  0  0  0  0  0  0  0
    1.4314   -2.6435   -4.0889 C   0  0  0  0  0  0  0  0  0  0  0  0
    0.1514   -2.6967   -3.5910 C   0  0  0  0  0  0  0  0  0  0  0  0
   -0.0984   -2.2716   -2.3155 C   0  0  0  0  0  0  0  0  0  0  0  0
   -0.6729   -3.2064   -4.5552 C   0  0  0  0  0  0  0  0  0  0  0  0
    0.0479   -3.4791   -5.6658 C   0  0  0  0  0  0  0  0  0  0  0  0
    1.3922   -3.1388   -5.4102 N   0  0  0  0  0  0  0  0  0  0  0  0
    2.5267   -3.2731   -6.3352 C   0  0  0  0  0  0  0  0  0  0  0  0
    2.3425   -3.7384   -7.5034 O   0  0  0  0  0  0  0  0  0  0  0  0
    3.9202   -2.8555   -5.8945 C   0  0  0  0  0  0  0  0  0  0  0  0
    4.5352   -3.4800   -4.7738 C   0  0  0  0  0  0  0  0  0  0  0  0
    5.6786   -2.8982   -4.2023 C   0  0  0  0  0  0  0  0  0  0  0  0
    6.3249   -1.9688   -4.8426 C   0  0  0  0  0  0  0  0  0  0  0  0
    7.7660   -1.2230   -4.1108 Cl  0  0  0  0  0  0  0  0  0  0  0  0
    5.8883   -1.5537   -6.1077 C   0  0  0  0  0  0  0  0  0  0  0  0
    4.5902   -1.9064   -6.5505 C   0  0  0  0  0  0  0  0  0  0  0  0
   -0.5266   -4.0532   -6.9369 C   0  0  0  0  0  0  0  0  0  0  0  0
   -1.9093   -4.6374   -6.6225 C   0  0  0  0  0  0  0  0  0  0  0  0
   -2.7359   -3.6004   -5.8566 C   0  0  0  0  0  0  0  0  0  0  0  0
   -2.6802   -2.2671   -6.5844 C   0  0  0  0  0  0  0  0  0  0  0  0
   -3.7511   -1.7282   -7.0063 O   0  0  0  0  0  0  0  0  0  0  0  0
   -1.4317   -1.6236   -6.7928 O   0  0  0  0  0  0  0  0  0  0  0  0
   -2.1622   -3.4379   -4.4415 C   0  0  0  0  0  0  0  0  0  0  0  0
    0.6719    0.3001    1.0598 H   0  0  0  0  0  0  0  0  0  0  0  0
    0.6719    0.7676   -0.6238 H   0  0  0  0  0  0  0  0  0  0  0  0
    2.0986    0.0478    0.0830 H   0  0  0  0  0  0  0  0  0  0  0  0
    2.9990   -1.3614   -1.4034 H   0  0  0  0  0  0  0  0  0  0  0  0
    3.4733   -2.1142   -3.6822 H   0  0  0  0  0  0  0  0  0  0  0  0
   -1.0959   -2.3133   -1.9306 H   0  0  0  0  0  0  0  0  0  0  0  0
    4.1303   -4.3845   -4.3702 H   0  0  0  0  0  0  0  0  0  0  0  0
    6.0181   -3.2197   -3.2399 H   0  0  0  0  0  0  0  0  0  0  0  0
    6.5319   -0.9737   -6.7356 H   0  0  0  0  0  0  0  0  0  0  0  0
    4.1538   -1.4196   -7.3975 H   0  0  0  0  0  0  0  0  0  0  0  0
   -0.6110   -3.2884   -7.6804 H   0  0  0  0  0  0  0  0  0  0  0  0
    0.1157   -4.8244   -7.3077 H   0  0  0  0  0  0  0  0  0  0  0  0
   -2.4076   -4.8889   -7.5354 H   0  0  0  0  0  0  0  0  0  0  0  0
   -1.7977   -5.5176   -6.0246 H   0  0  0  0  0  0  0  0  0  0  0  0
   -3.7524   -3.9287   -5.7946 H   0  0  0  0  0  0  0  0  0  0  0  0
   -1.3951   -0.7464   -7.2716 H   0  0  0  0  0  0  0  0  0  0  0  0
   -2.6269   -2.6094   -3.9489 H   0  0  0  0  0  0  0  0  0  0  0  0
   -2.3479   -4.3246   -3.8721 H   0  0  0  0  0  0  0  0  0  0  0  0
  1  2  1  0  0  0  0
  1 28  1  0  0  0  0
  1 29  1  0  0  0  0
  1 30  1  0  0  0  0
  2  3  1  0  0  0  0
  3  4  1  0  0  0  0
  3  8  2  0  0  0  0
  4  5  2  0  0  0  0
  4 31  1  0  0  0  0
  5  6  1  0  0  0  0
  5 32  1  0  0  0  0
  6  7  2  0  0  0  0
  6 11  1  0  0  0  0
  7  8  1  0  0  0  0
  7  9  1  0  0  0  0
  8 33  1  0  0  0  0
  9 10  2  0  0  0  0
  9 27  1  0  0  0  0
 10 11  1  0  0  0  0
 10 21  1  0  0  0  0
 11 12  1  0  0  0  0
 12 13  2  0  0  0  0
 12 14  1  0  0  0  0
 14 15  1  0  0  0  0
 14 20  2  0  0  0  0
 15 16  2  0  0  0  0
 15 34  1  0  0  0  0
 16 17  1  0  0  0  0
 16 35  1  0  0  0  0
 17 18  1  0  0  0  0
 17 19  2  0  0  0  0
 19 20  1  0  0  0  0
 19 36  1  0  0  0  0
 20 37  1  0  0  0  0
 21 22  1  0  0  0  0
 21 38  1  0  0  0  0
 21 39  1  0  0  0  0
 22 23  1  0  0  0  0
 22 40  1  0  0  0  0
 22 41  1  0  0  0  0
 23 24  1  0  0  0  0
 23 27  1  0  0  0  0
 23 42  1  0  0  0  0
 24 25  2  0  0  0  0
 24 26  1  0  0  0  0
 26 43  1  0  0  0  0
 27 44  1  0  0  0  0
 27 45  1  0  0  0  0
M  END
