
 OpenBabel03132512083D

 67 72  0  0  0  0  0  0  0  0999 V2000
    0.9969    0.0647    0.0762 C   0  0  0  0  0  0  0  0  0  0  0  0
    0.5069   -0.1985   -1.2845 N   0  0  0  0  0  0  0  0  0  0  0  0
   -0.9631   -0.1985   -1.2845 C   0  0  0  0  0  0  0  0  0  0  0  0
    0.9969    0.8483   -2.1928 C   0  0  0  0  0  0  0  0  0  0  0  0
    0.4902    2.2029   -1.7250 C   0  0  0  0  0  0  0  0  0  0  0  0
    0.9636    2.4571   -0.4106 O   0  0  0  0  0  0  0  0  0  0  0  0
    0.6205    1.5775    0.6501 C   0  0  0  0  0  0  0  0  0  0  0  0
    0.3723    2.0951    1.9107 C   0  0  0  0  0  0  0  0  0  0  0  0
    0.5167    1.1525    2.9561 C   0  0  0  0  0  0  0  0  0  0  0  0
    0.5235   -0.1573    2.7878 C   0  0  0  0  0  0  0  0  0  0  0  0
    0.3397   -1.1155    3.9534 C   0  0  0  0  0  0  0  0  0  0  0  0
   -0.7862   -0.9559    4.7443 C   0  0  0  0  0  0  0  0  0  0  0  0
   -0.6906   -1.5806    6.0103 C   0  0  0  0  0  0  0  0  0  0  0  0
    0.1836   -2.5217    6.3170 C   0  0  0  0  0  0  0  0  0  0  0  0
    0.0267   -3.3872    7.5566 C   0  0  0  0  0  0  0  0  0  0  0  0
   -1.0474   -4.2508    7.6398 N   0  0  0  0  0  0  0  0  0  0  0  0
   -1.1482   -5.1260    8.7254 C   0  0  0  0  0  0  0  0  0  0  0  0
   -2.1224   -6.1426    9.1190 N   0  0  0  0  0  0  0  0  0  0  0  0
   -1.7207   -6.6690   10.2388 C   0  0  0  0  0  0  0  0  0  0  0  0
   -2.4013   -7.6966   10.9439 O   0  0  0  0  0  0  0  0  0  0  0  0
   -3.6159   -8.2246   10.4318 C   0  0  0  0  0  0  0  0  0  0  0  0
   -3.3853   -8.7516    9.2185 C   0  0  0  0  0  0  0  0  0  0  0  0
   -3.6137   -7.7428    8.1954 O   0  0  0  0  0  0  0  0  0  0  0  0
   -4.5656   -6.7008    8.8133 C   0  0  0  0  0  0  0  0  0  0  0  0
   -5.9502   -6.8808    8.2266 C   0  0  0  0  0  0  0  0  0  0  0  0
   -5.8775   -7.2139    6.8482 O   0  0  0  0  0  0  0  0  0  0  0  0
   -6.5564   -7.8729    8.9352 C   0  0  0  0  0  0  0  0  0  0  0  0
   -6.0775   -7.8653   10.3091 O   0  0  0  0  0  0  0  0  0  0  0  0
   -4.7002   -7.1758   10.2875 C   0  0  0  0  0  0  0  0  0  0  0  0
   -0.5221   -6.0767   10.6477 N   0  0  0  0  0  0  0  0  0  0  0  0
   -0.1564   -5.1208    9.7220 C   0  0  0  0  0  0  0  0  0  0  0  0
    0.9184   -4.2449    9.6211 C   0  0  0  0  0  0  0  0  0  0  0  0
    1.0109   -3.3905    8.5454 C   0  0  0  0  0  0  0  0  0  0  0  0
    2.3971   -2.2815    8.4152 Cl  0  0  0  0  0  0  0  0  0  0  0  0
    1.2373   -2.6757    5.4595 C   0  0  0  0  0  0  0  0  0  0  0  0
    1.2795   -2.0009    4.2634 C   0  0  0  0  0  0  0  0  0  0  0  0
    0.7049   -0.6052    1.5087 C   0  0  0  0  0  0  0  0  0  0  0  0
    0.7065    0.2680    0.4478 C   0  0  0  0  0  0  0  0  0  0  0  0
    0.6402   -0.6973    0.7373 H   0  0  0  0  0  0  0  0  0  0  0  0
    0.6402    1.0182    0.4055 H   0  0  0  0  0  0  0  0  0  0  0  0
    2.0669    0.0647    0.0762 H   0  0  0  0  0  0  0  0  0  0  0  0
   -1.3198    0.7550   -0.9552 H   0  0  0  0  0  0  0  0  0  0  0  0
   -1.3198   -0.3901   -2.2750 H   0  0  0  0  0  0  0  0  0  0  0  0
   -1.3198   -0.9605   -0.6234 H   0  0  0  0  0  0  0  0  0  0  0  0
    2.0669    0.8483   -2.1928 H   0  0  0  0  0  0  0  0  0  0  0  0
    0.6402    0.6567   -3.1833 H   0  0  0  0  0  0  0  0  0  0  0  0
    0.8469    2.9648   -2.3861 H   0  0  0  0  0  0  0  0  0  0  0  0
   -0.5798    2.2029   -1.7250 H   0  0  0  0  0  0  0  0  0  0  0  0
    0.0964    3.1152    2.0788 H   0  0  0  0  0  0  0  0  0  0  0  0
    0.6281    1.5270    3.9522 H   0  0  0  0  0  0  0  0  0  0  0  0
   -1.6498   -0.4099    4.4267 H   0  0  0  0  0  0  0  0  0  0  0  0
   -1.3742   -1.2687    6.7721 H   0  0  0  0  0  0  0  0  0  0  0  0
   -3.9571   -8.9598   11.1304 H   0  0  0  0  0  0  0  0  0  0  0  0
   -2.3710   -9.0880    9.1648 H   0  0  0  0  0  0  0  0  0  0  0  0
   -4.0464   -9.5774    9.0577 H   0  0  0  0  0  0  0  0  0  0  0  0
   -4.2172   -5.6996    8.6679 H   0  0  0  0  0  0  0  0  0  0  0  0
   -6.5080   -5.9720    8.3156 H   0  0  0  0  0  0  0  0  0  0  0  0
   -5.3596   -8.0621    6.7371 H   0  0  0  0  0  0  0  0  0  0  0  0
   -6.3253   -8.8167    8.4873 H   0  0  0  0  0  0  0  0  0  0  0  0
   -7.6150   -7.7179    8.9278 H   0  0  0  0  0  0  0  0  0  0  0  0
   -4.6171   -6.4237   11.0441 H   0  0  0  0  0  0  0  0  0  0  0  0
   -0.0023   -6.3128   11.4930 H   0  0  0  0  0  0  0  0  0  0  0  0
    1.6736   -4.2347   10.3790 H   0  0  0  0  0  0  0  0  0  0  0  0
    2.0407   -3.3312    5.7237 H   0  0  0  0  0  0  0  0  0  0  0  0
    2.0768   -2.1906    3.5754 H   0  0  0  0  0  0  0  0  0  0  0  0
    0.8476   -1.6507    1.3314 H   0  0  0  0  0  0  0  0  0  0  0  0
    0.7776   -0.1107   -0.5504 H   0  0  0  0  0  0  0  0  0  0  0  0
  1  2  1  0  0  0  0
  1 39  1  0  0  0  0
  1 40  1  0  0  0  0
  1 41  1  0  0  0  0
  2  3  1  0  0  0  0
  2  4  1  0  0  0  0
  3 42  1  0  0  0  0
  3 43  1  0  0  0  0
  3 44  1  0  0  0  0
  4  5  1  0  0  0  0
  4 45  1  0  0  0  0
  4 46  1  0  0  0  0
  5  6  1  0  0  0  0
  5 47  1  0  0  0  0
  5 48  1  0  0  0  0
  6  7  1  0  0  0  0
  7  8  1  0  0  0  0
  7 38  2  0  0  0  0
  8  9  2  0  0  0  0
  8 49  1  0  0  0  0
  9 10  1  0  0  0  0
  9 50  1  0  0  0  0
 10 11  1  0  0  0  0
 10 37  2  0  0  0  0
 11 12  1  0  0  0  0
 11 36  2  0  0  0  0
 12 13  2  0  0  0  0
 12 51  1  0  0  0  0
 13 14  1  0  0  0  0
 13 52  1  0  0  0  0
 14 15  1  0  0  0  0
 14 35  2  0  0  0  0
 15 16  1  0  0  0  0
 15 33  2  0  0  0  0
 16 17  2  0  0  0  0
 17 18  1  0  0  0  0
 17 31  1  0  0  0  0
 18 19  2  0  0  0  0
 19 20  1  0  0  0  0
 19 30  1  0  0  0  0
 20 21  1  0  0  0  0
 21 22  1  0  0  0  0
 21 29  1  0  0  0  0
 21 53  1  0  0  0  0
 22 23  1  0  0  0  0
 22 54  1  0  0  0  0
 22 55  1  0  0  0  0
 23 24  1  0  0  0  0
 24 25  1  0  0  0  0
 24 29  1  0  0  0  0
 24 56  1  0  0  0  0
 25 26  1  0  0  0  0
 25 27  1  0  0  0  0
 25 57  1  0  0  0  0
 26 58  1  0  0  0  0
 27 28  1  0  0  0  0
 27 59  1  0  0  0  0
 27 60  1  0  0  0  0
 28 29  1  0  0  0  0
 29 61  1  0  0  0  0
 30 31  1  0  0  0  0
 30 62  1  0  0  0  0
 31 32  2  0  0  0  0
 32 33  1  0  0  0  0
 32 63  1  0  0  0  0
 33 34  1  0  0  0  0
 35 36  1  0  0  0  0
 35 64  1  0  0  0  0
 36 65  1  0  0  0  0
 37 38  1  0  0  0  0
 37 66  1  0  0  0  0
 38 67  1  0  0  0  0
M  END
