REMARK  Name = 
REMARK  9 active torsions:
REMARK  status: ('A' for Active; 'I' for Inactive)
REMARK    1  A    between atoms: C_1  and  N_2
REMARK    2  A    between atoms: N_2  and  S_3
REMARK    3  A    between atoms: S_3  and  C_4
REMARK    4  A    between atoms: N_6  and  C_7
REMARK    5  A    between atoms: C_10  and  C_11
REMARK    6  A    between atoms: C_14  and  C_15
REMARK    7  A    between atoms: C_19  and  O_20
REMARK    8  A    between atoms: O_20  and  C_21
REMARK    9  A    between atoms: C_25  and  O_26
REMARK                            x       y       z     vdW  Elec       q    Type
REMARK                         _______ _______ _______ _____ _____    ______ ____
ROOT
ATOM      1  C   UNL     1     -11.636  -1.238  -2.966  0.00  0.00    +0.000 A 
ATOM      2  N   UNL     1     -12.506  -0.784  -1.994  0.00  0.00    +0.000 NA
ATOM      3  C   UNL     1     -13.882  -0.964  -2.160  0.00  0.00    +0.000 A 
ATOM      4  N   UNL     1     -15.052  -0.620  -1.354  0.00  0.00    +0.000 NA
ATOM      5  C   UNL     1     -16.111  -1.026  -1.992  0.00  0.00    +0.000 A 
ATOM      6  N   UNL     1     -15.744  -1.634  -3.196  0.00  0.00    +0.000 N 
ATOM      7  C   UNL     1     -14.370  -1.604  -3.313  0.00  0.00    +0.000 A 
ATOM      8  C   UNL     1     -13.479  -2.053  -4.281  0.00  0.00    +0.000 A 
ATOM      9  C   UNL     1     -12.126  -1.866  -4.111  0.00  0.00    +0.000 A 
ATOM     10 CL   UNL     1     -10.992  -2.431  -5.361  0.00  0.00    +0.000 Cl
ATOM     11  H   UNL     1     -16.389  -2.035  -3.878  0.00  0.00    +0.000 HD
ENDROOT
BRANCH   1  15
ATOM     12  C   UNL     1      -7.473  -0.520  -2.334  0.00  0.00    +0.000 A 
ATOM     13  C   UNL     1      -8.186  -1.200  -1.360  0.00  0.00    +0.000 A 
ATOM     14  C   UNL     1      -9.490  -1.575  -1.761  0.00  0.00    +0.000 A 
ATOM     15  C   UNL     1     -10.138  -1.052  -2.786  0.00  0.00    +0.000 A 
ATOM     16  C   UNL     1      -9.389  -0.334  -3.676  0.00  0.00    +0.000 A 
ATOM     17  C   UNL     1      -8.073  -0.039  -3.416  0.00  0.00    +0.000 A 
BRANCH  12  21
ATOM     18  C   UNL     1      -3.301   0.037  -1.611  0.00  0.00    +0.000 A 
ATOM     19  C   UNL     1      -3.813  -1.250  -1.591  0.00  0.00    +0.000 A 
ATOM     20  C   UNL     1      -5.146  -1.343  -2.056  0.00  0.00    +0.000 A 
ATOM     21  C   UNL     1      -5.976  -0.322  -2.160  0.00  0.00    +0.000 A 
ATOM     22  C   UNL     1      -5.417   0.925  -2.103  0.00  0.00    +0.000 A 
ATOM     23  C   UNL     1      -4.091   1.090  -1.784  0.00  0.00    +0.000 A 
BRANCH  18  27
ATOM     24  S   UNL     1      -1.331   1.367  -0.467  0.00  0.00    +0.000 S 
ATOM     25  C   UNL     1      -1.934   1.050   1.210  0.00  0.00    +0.000 C 
ATOM     26  O   UNL     1      -1.841   2.728  -0.945  0.00  0.00    +0.000 OA
ATOM     27  N   UNL     1      -1.855   0.240  -1.435  0.00  0.00    +0.000 NA
BRANCH  24  29
ATOM     28  C   UNL     1       0.919   0.059  -0.009  0.00  0.00    +0.000 C 
ATOM     29  N   UNL     1       0.429   1.367  -0.467  0.00  0.00    +0.000 NA
ATOM     30  H   UNL     1       0.769   2.096   0.160  0.00  0.00    +0.000 HD
ENDBRANCH  24  29
ENDBRANCH  18  27
ENDBRANCH  12  21
ENDBRANCH   1  15
BRANCH   5  31
ATOM     31  O   UNL     1     -17.445  -0.873  -1.532  0.00  0.00    +0.000 OA
BRANCH  31  32
ATOM     32  C   UNL     1     -17.699  -0.237  -0.288  0.00  0.00    +0.000 C 
ATOM     33  C   UNL     1     -17.233   1.022  -0.292  0.00  0.00    +0.000 C 
ATOM     34  O   UNL     1     -15.855   1.035   0.175  0.00  0.00    +0.000 OA
ATOM     35  C   UNL     1     -15.669  -0.237   1.024  0.00  0.00    +0.000 C 
ATOM     36  C   UNL     1     -15.636   0.142   2.490  0.00  0.00    +0.000 C 
ATOM     37  C   UNL     1     -16.929   0.244   2.903  0.00  0.00    +0.000 C 
ATOM     38  O   UNL     1     -17.762  -0.689   2.160  0.00  0.00    +0.000 OA
ATOM     39  C   UNL     1     -17.021  -0.983   0.843  0.00  0.00    +0.000 C 
BRANCH  36  40
ATOM     40  O   UNL     1     -14.944   1.368   2.681  0.00  0.00    +0.000 OA
ATOM     41  H   UNL     1     -15.400   2.092   2.163  0.00  0.00    +0.000 HD
ENDBRANCH  36  40
ENDBRANCH  31  32
ENDBRANCH   5  31
TORSDOF 7
