REMARK  Name = 
REMARK  6 active torsions:
REMARK  status: ('A' for Active; 'I' for Inactive)
REMARK    1  A    between atoms: C_1  and  O_2
REMARK    2  A    between atoms: O_2  and  C_3
REMARK    3  A    between atoms: C_6  and  C_7
REMARK    4  A    between atoms: C_17  and  C_18
REMARK    5  A    between atoms: C_20  and  C_21
REMARK    6  A    between atoms: C_23  and  C_24
REMARK                            x       y       z     vdW  Elec       q    Type
REMARK                         _______ _______ _______ _____ _____    ______ ____
ROOT
ATOM      1  C   UNL     1       2.041   4.119   5.068  0.00  0.00    +0.000 A 
ATOM      2  C   UNL     1       1.526   3.735   6.301  0.00  0.00    +0.000 A 
ATOM      3  C   UNL     1       1.984   4.345   7.460  0.00  0.00    +0.000 A 
ATOM      4  C   UNL     1       2.990   5.303   7.431  0.00  0.00    +0.000 A 
ATOM      5  C   UNL     1       3.543   5.677   6.214  0.00  0.00    +0.000 A 
ATOM      6  C   UNL     1       3.019   5.085   5.064  0.00  0.00    +0.000 A 
ATOM      7  N   UNL     1       3.637   5.644   3.939  0.00  0.00    +0.000 N 
ATOM      8  C   UNL     1       4.554   6.578   4.295  0.00  0.00    +0.000 C 
ATOM      9  O   UNL     1       5.241   7.226   3.503  0.00  0.00    +0.000 OA
ATOM     10  C   UNL     1       4.563   6.637   5.787  0.00  0.00    +0.000 C 
ATOM     11  C   UNL     1       5.432   7.424   6.446  0.00  0.00    +0.000 C 
ATOM     12  H   UNL     1       3.424   5.384   2.977  0.00  0.00    +0.000 HD
ENDROOT
BRANCH  11  13
ATOM     13  C   UNL     1       5.468   7.412   7.965  0.00  0.00    +0.000 A 
ATOM     14  N   UNL     1       5.734   6.324   8.762  0.00  0.00    +0.000 N 
ATOM     15  C   UNL     1       5.669   6.671  10.079  0.00  0.00    +0.000 A 
ATOM     16  C   UNL     1       5.884   5.668  11.159  0.00  0.00    +0.000 C 
ATOM     17  C   UNL     1       5.378   8.011  10.137  0.00  0.00    +0.000 A 
ATOM     18  C   UNL     1       5.238   8.485   8.791  0.00  0.00    +0.000 A 
ATOM     19  C   UNL     1       4.940   9.903   8.377  0.00  0.00    +0.000 C 
ATOM     20  H   UNL     1       5.950   5.389   8.417  0.00  0.00    +0.000 HD
ENDBRANCH  11  13
BRANCH   1  24
ATOM     21  C   UNL     1       0.846   1.978   1.609  0.00  0.00    +0.000 A 
ATOM     22  C   UNL     1       2.165   1.884   2.009  0.00  0.00    +0.000 A 
ATOM     23  C   UNL     1       2.589   2.574   3.147  0.00  0.00    +0.000 A 
ATOM     24  C   UNL     1       1.650   3.347   3.819  0.00  0.00    +0.000 A 
ATOM     25  C   UNL     1       0.362   3.404   3.338  0.00  0.00    +0.000 A 
ATOM     26  N   UNL     1      -0.055   2.729   2.263  0.00  0.00    +0.000 NA
BRANCH  21  28
ATOM     27  C   UNL     1       0.976   0.057   0.079  0.00  0.00    +0.000 C 
ATOM     28  O   UNL     1       0.503   1.362   0.377  0.00  0.00    +0.000 OA
ENDBRANCH  21  28
ENDBRANCH   1  24
TORSDOF 3
