REMARK  Name = 
REMARK  6 active torsions:
REMARK  status: ('A' for Active; 'I' for Inactive)
REMARK    1  A    between atoms: N_1  and  S_2
REMARK    2  A    between atoms: S_2  and  C_5
REMARK    3  A    between atoms: C_9  and  C_10
REMARK    4  A    between atoms: C_16  and  N_17
REMARK    5  A    between atoms: C_18  and  C_20
REMARK    6  A    between atoms: C_20  and  C_21
REMARK                            x       y       z     vdW  Elec       q    Type
REMARK                         _______ _______ _______ _____ _____    ______ ____
ROOT
ATOM      1  C   UNL     1       2.400  -3.124   5.579  0.00  0.00    +0.000 A 
ATOM      2  N   UNL     1       2.724  -1.939   6.235  0.00  0.00    +0.000 NA
ATOM      3  N   UNL     1       3.253  -1.977   7.471  0.00  0.00    +0.000 N 
ATOM      4  C   UNL     1       3.491  -3.269   8.130  0.00  0.00    +0.000 A 
ATOM      5  C   UNL     1       3.244  -3.422   9.484  0.00  0.00    +0.000 A 
ATOM      6  C   UNL     1       3.895  -4.537  10.063  0.00  0.00    +0.000 A 
ATOM      7  C   UNL     1       4.390  -5.553   9.381  0.00  0.00    +0.000 A 
ATOM      8  C   UNL     1       4.547  -5.364   8.036  0.00  0.00    +0.000 A 
ATOM      9  C   UNL     1       4.053  -4.240   7.418  0.00  0.00    +0.000 A 
ATOM     10  H   UNL     1       3.490  -1.109   7.951  0.00  0.00    +0.000 HD
ENDROOT
BRANCH   1  15
ATOM     11  C   UNL     1       0.981  -1.801   2.395  0.00  0.00    +0.000 A 
ATOM     12  C   UNL     1       0.694  -2.945   1.669  0.00  0.00    +0.000 A 
ATOM     13  C   UNL     1       0.824  -4.143   2.411  0.00  0.00    +0.000 A 
ATOM     14  C   UNL     1       1.488  -4.251   3.548  0.00  0.00    +0.000 A 
ATOM     15  C   UNL     1       1.802  -3.081   4.182  0.00  0.00    +0.000 A 
ATOM     16  C   UNL     1       1.584  -1.868   3.576  0.00  0.00    +0.000 A 
BRANCH  11  17
ATOM     17  S   UNL     1       0.378  -0.226   1.738  0.00  0.00    +0.000 S 
ATOM     18  O   UNL     1       0.888   0.921   2.614  0.00  0.00    +0.000 OA
ATOM     19  O   UNL     1      -1.153  -0.226   1.738  0.00  0.00    +0.000 OA
BRANCH  17  20
ATOM     20  N   UNL     1       0.964  -0.013   0.092  0.00  0.00    +0.000 NA
ATOM     21  H   UNL     1       0.624   0.875  -0.278  0.00  0.00    +0.000 HD
ATOM     22  H   UNL     1       1.984  -0.013   0.092  0.00  0.00    +0.000 HD
ENDBRANCH  17  20
ENDBRANCH  11  17
ENDBRANCH   1  15
BRANCH   7  23
ATOM     23  N   UNL     1       4.754  -6.819  10.033  0.00  0.00    +0.000 N 
ATOM     24  C   UNL     1       4.569  -6.980  11.482  0.00  0.00    +0.000 C 
ATOM     25  O   UNL     1       4.883  -8.075  12.045  0.00  0.00    +0.000 OA
ATOM     26  H   UNL     1       5.135  -7.587   9.479  0.00  0.00    +0.000 HD
BRANCH  24  27
ATOM     27  C   UNL     1       4.002  -5.836  12.307  0.00  0.00    +0.000 C 
BRANCH  27  28
ATOM     28  C   UNL     1       4.910  -4.624  12.185  0.00  0.00    +0.000 A 
ATOM     29  C   UNL     1       6.282  -4.810  12.143  0.00  0.00    +0.000 A 
ATOM     30  C   UNL     1       7.028  -3.621  12.323  0.00  0.00    +0.000 A 
ATOM     31  C   UNL     1       6.539  -2.402  12.185  0.00  0.00    +0.000 A 
ATOM     32  C   UNL     1       5.176  -2.292  12.165  0.00  0.00    +0.000 A 
ATOM     33  C   UNL     1       4.378  -3.409  12.120  0.00  0.00    +0.000 A 
ENDBRANCH  27  28
ENDBRANCH  24  27
ENDBRANCH   7  23
TORSDOF 6
