REMARK  Name = 
REMARK  11 active torsions:
REMARK  status: ('A' for Active; 'I' for Inactive)
REMARK    1  A    between atoms: C_1  and  O_2
REMARK    2  A    between atoms: O_2  and  C_3
REMARK    3  A    between atoms: N_10  and  C_11
REMARK    4  A    between atoms: C_21  and  C_22
REMARK    5  A    between atoms: C_22  and  N_23
REMARK    6  A    between atoms: N_23  and  C_24
REMARK    7  A    between atoms: N_23  and  C_25
REMARK    8  A    between atoms: C_25  and  C_26
REMARK    9  A    between atoms: N_30  and  C_31
REMARK   10  A    between atoms: C_31  and  C_32
REMARK   11  A    between atoms: C_31  and  C_33
REMARK                            x       y       z     vdW  Elec       q    Type
REMARK                         _______ _______ _______ _____ _____    ______ ____
ROOT
ATOM      1  C   UNL     1       0.870   1.179  -2.268  0.00  0.00    +0.000 A 
ATOM      2  C   UNL     1      -0.099   1.612  -3.129  0.00  0.00    +0.000 A 
ATOM      3  C   UNL     1       0.196   2.604  -4.090  0.00  0.00    +0.000 A 
ATOM      4  N   UNL     1      -0.791   3.054  -4.930  0.00  0.00    +0.000 NA
ATOM      5  C   UNL     1      -0.447   3.969  -5.794  0.00  0.00    +0.000 A 
ATOM      6  N   UNL     1       0.796   4.515  -5.963  0.00  0.00    +0.000 NA
ATOM      7  C   UNL     1       1.753   4.083  -5.177  0.00  0.00    +0.000 A 
ATOM      8  N   UNL     1       3.110   4.624  -5.340  0.00  0.00    +0.000 N 
ATOM      9  C   UNL     1       1.514   3.105  -4.169  0.00  0.00    +0.000 A 
ATOM     10  C   UNL     1       2.503   2.631  -3.277  0.00  0.00    +0.000 A 
ATOM     11  C   UNL     1       2.180   1.691  -2.341  0.00  0.00    +0.000 A 
ATOM     12  H   UNL     1       3.865   4.298  -4.736  0.00  0.00    +0.000 HD
ENDROOT
BRANCH   8  13
ATOM     13  C   UNL     1       3.379   5.634  -6.373  0.00  0.00    +0.000 A 
ATOM     14  C   UNL     1       4.414   5.413  -7.258  0.00  0.00    +0.000 A 
ATOM     15  C   UNL     1       4.813   6.395  -8.156  0.00  0.00    +0.000 A 
ATOM     16  C   UNL     1       4.150   7.621  -8.156  0.00  0.00    +0.000 A 
ATOM     17  C   UNL     1       3.113   7.840  -7.269  0.00  0.00    +0.000 A 
ATOM     18 CL   UNL     1       2.255   9.343  -7.288  0.00  0.00    +0.000 Cl
ATOM     19  C   UNL     1       2.743   6.849  -6.388  0.00  0.00    +0.000 A 
ATOM     20  F   UNL     1       1.716   7.065  -5.542  0.00  0.00    +0.000 F 
ENDBRANCH   8  13
BRANCH   1  22
ATOM     21  C   UNL     1       1.001   0.041  -0.091  0.00  0.00    +0.000 C 
ATOM     22  O   UNL     1       0.527   0.085  -1.429  0.00  0.00    +0.000 OA
ENDBRANCH   1  22
BRANCH  11  23
ATOM     23  C   UNL     1       3.241   1.193  -1.373  0.00  0.00    +0.000 C 
BRANCH  23  24
ATOM     24  N   UNL     1       4.345   0.583  -2.127  0.00  0.00    +0.000 NA
ATOM     25  C   UNL     1       5.371   0.102  -1.190  0.00  0.00    +0.000 C 
BRANCH  24  26
ATOM     26  C   UNL     1       3.834  -0.546  -2.917  0.00  0.00    +0.000 C 
ATOM     27  C   UNL     1       4.385  -1.930  -2.531  0.00  0.00    +0.000 C 
ATOM     28  N   UNL     1       2.963  -2.471  -2.751  0.00  0.00    +0.000 NA
ATOM     29  C   UNL     1       2.458  -1.051  -2.446  0.00  0.00    +0.000 C 
BRANCH  26  30
ATOM     30  C   UNL     1       4.073   0.034  -4.301  0.00  0.00    +0.000 C 
ATOM     31  N   UNL     1       4.663   1.372  -4.445  0.00  0.00    +0.000 N 
ATOM     32  O   UNL     1       3.761  -0.637  -5.334  0.00  0.00    +0.000 OA
ATOM     33  H   UNL     1       4.824   1.762  -5.374  0.00  0.00    +0.000 HD
ATOM     34  H   UNL     1       4.913   1.911  -3.616  0.00  0.00    +0.000 HD
ENDBRANCH  26  30
BRANCH  28  35
ATOM     35  C   UNL     1       2.688  -2.942  -4.116  0.00  0.00    +0.000 C 
ATOM     36  C   UNL     1       2.878  -1.795  -5.095  0.00  0.00    +0.000 C 
ATOM     37  C   UNL     1       3.646  -4.070  -4.465  0.00  0.00    +0.000 C 
ENDBRANCH  28  35
ENDBRANCH  24  26
ENDBRANCH  23  24
ENDBRANCH  11  23
TORSDOF 7
