REMARK  Name = 
REMARK  7 active torsions:
REMARK  status: ('A' for Active; 'I' for Inactive)
REMARK    1  A    between atoms: C_1  and  S_2
REMARK    2  A    between atoms: S_2  and  C_3
REMARK    3  A    between atoms: C_8  and  N_9
REMARK    4  A    between atoms: N_9  and  C_10
REMARK    5  A    between atoms: N_16  and  C_17
REMARK    6  A    between atoms: N_28  and  C_29
REMARK    7  A    between atoms: C_29  and  C_30
REMARK                            x       y       z     vdW  Elec       q    Type
REMARK                         _______ _______ _______ _____ _____    ______ ____
ROOT
ATOM      1  C   UNL     1       1.785   1.550  -3.242  0.00  0.00    +0.000 A 
ATOM      2  N   UNL     1       1.317   1.861  -4.478  0.00  0.00    +0.000 NA
ATOM      3  C   UNL     1       1.713   3.046  -5.121  0.00  0.00    +0.000 A 
ATOM      4  N   UNL     1       1.185   3.362  -6.456  0.00  0.00    +0.000 N 
ATOM      5  C   UNL     1       1.973   3.598  -7.671  0.00  0.00    +0.000 C 
ATOM      6  C   UNL     1       1.566   2.656  -8.788  0.00  0.00    +0.000 C 
ATOM      7  N   UNL     1       0.144   2.831  -9.107  0.00  0.00    +0.000 NA
ATOM      8  C   UNL     1      -0.644   2.596  -7.891  0.00  0.00    +0.000 C 
ATOM      9  C   UNL     1      -0.237   3.538  -6.774  0.00  0.00    +0.000 C 
ATOM     10  N   UNL     1       2.597   3.916  -4.508  0.00  0.00    +0.000 NA
ATOM     11  C   UNL     1       3.089   3.617  -3.230  0.00  0.00    +0.000 A 
ATOM     12  C   UNL     1       3.985   4.486  -2.578  0.00  0.00    +0.000 A 
ATOM     13  N   UNL     1       4.412   5.730  -3.235  0.00  0.00    +0.000 N 
ATOM     14  N   UNL     1       4.454   4.176  -1.343  0.00  0.00    +0.000 NA
ATOM     15  C   UNL     1       4.057   2.990  -0.698  0.00  0.00    +0.000 A 
ATOM     16  N   UNL     1       3.177   2.115  -1.313  0.00  0.00    +0.000 NA
ATOM     17  C   UNL     1       2.681   2.418  -2.589  0.00  0.00    +0.000 A 
ATOM     18  H   UNL     1       4.059   5.963  -4.163  0.00  0.00    +0.000 HD
ENDROOT
BRANCH   7  19
ATOM     19  C   UNL     1      -0.089   4.200  -9.590  0.00  0.00    +0.000 C 
ATOM     20  C   UNL     1       0.206   5.471  -8.797  0.00  0.00    +0.000 C 
ATOM     21  C   UNL     1      -0.628   5.526  -7.535  0.00  0.00    +0.000 C 
ATOM     22  N   UNL     1      -2.058   5.462  -7.860  0.00  0.00    +0.000 NA
ATOM     23  C   UNL     1      -2.350   4.187  -8.513  0.00  0.00    +0.000 C 
ATOM     24  C   UNL     1      -1.592   4.061  -9.824  0.00  0.00    +0.000 C 
ATOM     25  H   UNL     1      -2.606   5.538  -7.003  0.00  0.00    +0.000 HD
ENDBRANCH   7  19
BRANCH   1  26
ATOM     26  N   UNL     1       1.286   0.418  -2.447  0.00  0.00    +0.000 N 
ATOM     27  H   UNL     1       0.866   0.583  -1.533  0.00  0.00    +0.000 HD
BRANCH  26  33
ATOM     28  C   UNL     1       0.941  -1.969  -2.248  0.00  0.00    +0.000 A 
ATOM     29  C   UNL     1       0.883  -3.251  -2.769  0.00  0.00    +0.000 A 
ATOM     30  C   UNL     1       1.601  -3.412  -3.978  0.00  0.00    +0.000 A 
ATOM     31  C   UNL     1       1.991  -2.417  -4.755  0.00  0.00    +0.000 A 
ATOM     32  C   UNL     1       1.961  -1.167  -4.203  0.00  0.00    +0.000 A 
ATOM     33  C   UNL     1       1.393  -0.951  -2.971  0.00  0.00    +0.000 A 
BRANCH  28  35
ATOM     34  C   UNL     1       0.941  -0.077   0.023  0.00  0.00    +0.000 C 
ATOM     35  S   UNL     1       0.337  -1.679  -0.566  0.00  0.00    +0.000 S 
ENDBRANCH  28  35
ENDBRANCH  26  33
ENDBRANCH   1  26
BRANCH  13  36
ATOM     36  C   UNL     1       5.347   6.637  -2.554  0.00  0.00    +0.000 C 
BRANCH  36  37
ATOM     37  C   UNL     1       6.603   6.794  -3.396  0.00  0.00    +0.000 C 
ATOM     38  C   UNL     1       6.634   6.279  -4.836  0.00  0.00    +0.000 C 
ATOM     39  C   UNL     1       6.630   7.785  -4.562  0.00  0.00    +0.000 C 
ENDBRANCH  36  37
ENDBRANCH  13  36
TORSDOF 6
