
 OpenBabel03132514253D

 59 64  0  0  0  0  0  0  0  0999 V2000
    1.0438    0.0082   -0.0895 C   0  0  0  0  0  0  0  0  0  0  0  0
    0.3636    1.0994   -0.5337 C   0  0  0  0  0  0  0  0  0  0  0  0
   -1.1564    1.0994   -0.5337 C   0  0  0  0  0  0  0  0  0  0  0  0
   -1.6297    2.1565    0.2878 O   0  0  0  0  0  0  0  0  0  0  0  0
   -1.1564    1.9737    1.6140 C   0  0  0  0  0  0  0  0  0  0  0  0
   -1.2853    3.1190    2.3031 C   0  0  0  0  0  0  0  0  0  0  0  0
   -0.0889    3.9293    2.1337 O   0  0  0  0  0  0  0  0  0  0  0  0
    1.0464    2.9591    1.7550 C   0  0  0  0  0  0  0  0  0  0  0  0
    1.9586    2.7689    2.9490 C   0  0  0  0  0  0  0  0  0  0  0  0
    2.1195    3.9858    3.6630 O   0  0  0  0  0  0  0  0  0  0  0  0
    0.9864    4.6418    4.2124 C   0  0  0  0  0  0  0  0  0  0  0  0
    0.1988    4.1006    5.0951 N   0  0  0  0  0  0  0  0  0  0  0  0
   -0.8671    5.0563    5.3922 C   0  0  0  0  0  0  0  0  0  0  0  0
   -1.9773    5.0349    6.2417 N   0  0  0  0  0  0  0  0  0  0  0  0
   -2.8170    6.1296    6.2952 C   0  0  0  0  0  0  0  0  0  0  0  0
   -4.0212    6.1147    7.2227 C   0  0  0  0  0  0  0  0  0  0  0  0
   -3.8522    5.9649    8.5846 C   0  0  0  0  0  0  0  0  0  0  0  0
   -4.8961    5.9508    9.3984 C   0  0  0  0  0  0  0  0  0  0  0  0
   -6.1309    6.0845    8.9440 C   0  0  0  0  0  0  0  0  0  0  0  0
   -7.2962    6.0689    9.9198 C   0  0  0  0  0  0  0  0  0  0  0  0
   -7.3790    7.0124   10.9242 C   0  0  0  0  0  0  0  0  0  0  0  0
   -8.3909    7.0049   11.7777 C   0  0  0  0  0  0  0  0  0  0  0  0
   -9.3570    6.1052   11.6993 C   0  0  0  0  0  0  0  0  0  0  0  0
   -9.3383    5.1315   10.7194 C   0  0  0  0  0  0  0  0  0  0  0  0
   -8.2895    5.1062    9.8118 C   0  0  0  0  0  0  0  0  0  0  0  0
   -6.3740    6.2383    7.5928 C   0  0  0  0  0  0  0  0  0  0  0  0
   -5.3034    6.2515    6.7107 C   0  0  0  0  0  0  0  0  0  0  0  0
   -2.5654    7.2494    5.5021 C   0  0  0  0  0  0  0  0  0  0  0  0
   -3.6664    8.6462    5.5718 Cl  0  0  0  0  0  0  0  0  0  0  0  0
   -1.4720    7.2825    4.6660 C   0  0  0  0  0  0  0  0  0  0  0  0
   -0.6150    6.1899    4.5995 C   0  0  0  0  0  0  0  0  0  0  0  0
    0.5297    5.9202    3.8777 N   0  0  0  0  0  0  0  0  0  0  0  0
    1.3894    1.8150    3.7362 C   0  0  0  0  0  0  0  0  0  0  0  0
    0.6564    0.8650    2.9133 O   0  0  0  0  0  0  0  0  0  0  0  0
    0.3115    1.5976    1.6028 C   0  0  0  0  0  0  0  0  0  0  0  0
    0.5088   -0.8500    0.2599 H   0  0  0  0  0  0  0  0  0  0  0  0
    2.1138    0.0082   -0.0895 H   0  0  0  0  0  0  0  0  0  0  0  0
    0.8986    1.9577   -0.8831 H   0  0  0  0  0  0  0  0  0  0  0  0
   -1.5131    1.2372   -1.5331 H   0  0  0  0  0  0  0  0  0  0  0  0
   -1.5131    0.1651   -0.1534 H   0  0  0  0  0  0  0  0  0  0  0  0
   -1.7300    1.1936    2.0694 H   0  0  0  0  0  0  0  0  0  0  0  0
   -2.1340    3.6589    1.9383 H   0  0  0  0  0  0  0  0  0  0  0  0
   -1.4204    2.8966    3.3409 H   0  0  0  0  0  0  0  0  0  0  0  0
    1.5989    3.2972    0.9033 H   0  0  0  0  0  0  0  0  0  0  0  0
    2.9265    2.4483    2.6246 H   0  0  0  0  0  0  0  0  0  0  0  0
   -2.8663    5.8590    8.9869 H   0  0  0  0  0  0  0  0  0  0  0  0
   -4.7371    5.8282   10.4494 H   0  0  0  0  0  0  0  0  0  0  0  0
   -6.6169    7.7580   11.0137 H   0  0  0  0  0  0  0  0  0  0  0  0
   -8.4279    7.7447   12.5499 H   0  0  0  0  0  0  0  0  0  0  0  0
  -10.1626    6.1317   12.4031 H   0  0  0  0  0  0  0  0  0  0  0  0
  -10.1229    4.4063   10.6612 H   0  0  0  0  0  0  0  0  0  0  0  0
   -8.2474    4.3607    9.0454 H   0  0  0  0  0  0  0  0  0  0  0  0
   -7.3753    6.3459    7.2312 H   0  0  0  0  0  0  0  0  0  0  0  0
   -5.4630    6.3646    5.6587 H   0  0  0  0  0  0  0  0  0  0  0  0
   -1.2821    8.1489    4.0675 H   0  0  0  0  0  0  0  0  0  0  0  0
    0.9711    6.5510    3.2086 H   0  0  0  0  0  0  0  0  0  0  0  0
    0.7132    2.2819    4.4215 H   0  0  0  0  0  0  0  0  0  0  0  0
    2.1547    1.2989    4.2773 H   0  0  0  0  0  0  0  0  0  0  0  0
    0.5568    1.0129    0.7409 H   0  0  0  0  0  0  0  0  0  0  0  0
  1  2  2  0  0  0  0
  1 36  1  0  0  0  0
  1 37  1  0  0  0  0
  2  3  1  0  0  0  0
  2 38  1  0  0  0  0
  3  4  1  0  0  0  0
  3 39  1  0  0  0  0
  3 40  1  0  0  0  0
  4  5  1  0  0  0  0
  5  6  1  0  0  0  0
  5 35  1  0  0  0  0
  5 41  1  0  0  0  0
  6  7  1  0  0  0  0
  6 42  1  0  0  0  0
  6 43  1  0  0  0  0
  7  8  1  0  0  0  0
  8  9  1  0  0  0  0
  8 35  1  0  0  0  0
  8 44  1  0  0  0  0
  9 10  1  0  0  0  0
  9 33  1  0  0  0  0
  9 45  1  0  0  0  0
 10 11  1  0  0  0  0
 11 12  2  0  0  0  0
 11 32  1  0  0  0  0
 12 13  1  0  0  0  0
 13 14  1  0  0  0  0
 13 31  2  0  0  0  0
 14 15  2  0  0  0  0
 15 16  1  0  0  0  0
 15 28  1  0  0  0  0
 16 17  1  0  0  0  0
 16 27  2  0  0  0  0
 17 18  2  0  0  0  0
 17 46  1  0  0  0  0
 18 19  1  0  0  0  0
 18 47  1  0  0  0  0
 19 20  1  0  0  0  0
 19 26  2  0  0  0  0
 20 21  1  0  0  0  0
 20 25  2  0  0  0  0
 21 22  2  0  0  0  0
 21 48  1  0  0  0  0
 22 23  1  0  0  0  0
 22 49  1  0  0  0  0
 23 24  2  0  0  0  0
 23 50  1  0  0  0  0
 24 25  1  0  0  0  0
 24 51  1  0  0  0  0
 25 52  1  0  0  0  0
 26 27  1  0  0  0  0
 26 53  1  0  0  0  0
 27 54  1  0  0  0  0
 28 29  1  0  0  0  0
 28 30  2  0  0  0  0
 30 31  1  0  0  0  0
 30 55  1  0  0  0  0
 31 32  1  0  0  0  0
 32 56  1  0  0  0  0
 33 34  1  0  0  0  0
 33 57  1  0  0  0  0
 33 58  1  0  0  0  0
 34 35  1  0  0  0  0
 35 59  1  0  0  0  0
M  END
