REMARK  Name = 
REMARK  2 active torsions:
REMARK  status: ('A' for Active; 'I' for Inactive)
REMARK    1  A    between atoms: C_4  and  N_5
REMARK    2  A    between atoms: C_14  and  C_15
REMARK                            x       y       z     vdW  Elec       q    Type
REMARK                         _______ _______ _______ _____ _____    ______ ____
ROOT
ATOM      1  O   UNL     1      -1.725   2.022   0.006  0.00  0.00    +0.000 OA
ATOM      2  C   UNL     1      -1.399   0.833   0.014  0.00  0.00    +0.000 A 
ATOM      3  C   UNL     1      -2.316  -0.289   0.000  0.00  0.00    +0.000 A 
ATOM      4  C   UNL     1      -1.787  -1.598  -0.042  0.00  0.00    +0.000 A 
ATOM      5  O   UNL     1      -0.466  -1.868   0.011  0.00  0.00    +0.000 OA
ATOM      6  C   UNL     1       0.453  -0.834   0.016  0.00  0.00    +0.000 A 
ATOM      7  C   UNL     1       1.788  -1.207   0.016  0.00  0.00    +0.000 A 
ATOM      8  C   UNL     1       2.738  -0.204  -0.004  0.00  0.00    +0.000 A 
ATOM      9  C   UNL     1       2.366   1.133  -0.020  0.00  0.00    +0.000 A 
ATOM     10  C   UNL     1       1.031   1.477  -0.013  0.00  0.00    +0.000 A 
ATOM     11  C   UNL     1       0.044   0.484   0.009  0.00  0.00    +0.000 A 
ENDROOT
BRANCH   8  12
ATOM     12  C   UNL     1       4.213  -0.570  -0.009  0.00  0.00    +0.000 A 
ATOM     13  C   UNL     1       5.061  -0.146   1.022  0.00  0.00    +0.000 A 
ATOM     14  C   UNL     1       6.442  -0.417   0.956  0.00  0.00    +0.000 A 
ATOM     15  C   UNL     1       6.979  -1.144  -0.113  0.00  0.00    +0.000 A 
ATOM     16  C   UNL     1       6.120  -1.645  -1.115  0.00  0.00    +0.000 A 
ATOM     17  C   UNL     1       4.756  -1.338  -1.038  0.00  0.00    +0.000 A 
ATOM     18  S   UNL     1       3.804  -2.097  -2.291  0.00  0.00    +0.000 S 
ATOM     19  C   UNL     1       5.228  -2.858  -2.945  0.00  0.00    +0.000 A 
ATOM     20  C   UNL     1       5.233  -3.713  -4.047  0.00  0.00    +0.000 A 
ATOM     21  C   UNL     1       6.422  -4.242  -4.461  0.00  0.00    +0.000 A 
ATOM     22  C   UNL     1       7.598  -3.934  -3.796  0.00  0.00    +0.000 A 
ATOM     23  C   UNL     1       7.601  -3.096  -2.705  0.00  0.00    +0.000 A 
ATOM     24  C   UNL     1       6.402  -2.532  -2.244  0.00  0.00    +0.000 A 
ENDBRANCH   8  12
BRANCH   4  25
ATOM     25  N   UNL     1      -2.725  -2.725  -0.149  0.00  0.00    +0.000 N 
ATOM     26  C   UNL     1      -3.723  -3.069  -1.178  0.00  0.00    +0.000 C 
ATOM     27  C   UNL     1      -5.035  -3.411  -0.510  0.00  0.00    +0.000 C 
ATOM     28  O   UNL     1      -4.874  -4.487   0.414  0.00  0.00    +0.000 OA
ATOM     29  C   UNL     1      -3.932  -4.125   1.423  0.00  0.00    +0.000 C 
ATOM     30  C   UNL     1      -2.571  -3.829   0.820  0.00  0.00    +0.000 C 
ENDBRANCH   4  25
TORSDOF 2
