REMARK  Name = 
REMARK  5 active torsions:
REMARK  status: ('A' for Active; 'I' for Inactive)
REMARK    1  A    between atoms: C_1  and  C_2
REMARK    2  A    between atoms: C_2  and  C_3
REMARK    3  A    between atoms: C_2  and  C_4
REMARK    4  A    between atoms: C_10  and  C_11
REMARK    5  A    between atoms: C_15  and  C_16
REMARK                            x       y       z     vdW  Elec       q    Type
REMARK                         _______ _______ _______ _____ _____    ______ ____
ROOT
ATOM      1  C   UNL     1      -2.349  -3.392   0.254  0.00  0.00    +0.000 A 
ATOM      2  C   UNL     1      -1.669  -4.128   1.249  0.00  0.00    +0.000 A 
ATOM      3  N   UNL     1      -1.626  -5.413   0.939  0.00  0.00    +0.000 NA
ATOM      4  N   UNL     1      -2.272  -5.503  -0.262  0.00  0.00    +0.000 N 
ATOM      5  C   UNL     1      -2.716  -4.288  -0.684  0.00  0.00    +0.000 A 
ATOM      6  H   UNL     1      -2.406  -6.373  -0.777  0.00  0.00    +0.000 HD
ENDROOT
BRANCH   1  13
ATOM      7  C   UNL     1      -1.039   1.454   0.249  0.00  0.00    +0.000 A 
ATOM      8  N   UNL     1      -1.805   2.533   0.248  0.00  0.00    +0.000 NA
ATOM      9  N   UNL     1      -3.118   2.153   0.243  0.00  0.00    +0.000 NA
ATOM     10  C   UNL     1      -3.131   0.823   0.239  0.00  0.00    +0.000 A 
ATOM     11  C   UNL     1      -4.222  -0.083   0.213  0.00  0.00    +0.000 A 
ATOM     12  C   UNL     1      -3.958  -1.417   0.209  0.00  0.00    +0.000 A 
ATOM     13  C   UNL     1      -2.614  -1.895   0.242  0.00  0.00    +0.000 A 
ATOM     14  C   UNL     1      -1.566  -1.029   0.265  0.00  0.00    +0.000 A 
ATOM     15  N   UNL     1      -1.837   0.329   0.250  0.00  0.00    +0.000 N 
BRANCH   7  17
ATOM     16  C   UNL     1       0.988   0.059  -0.080  0.00  0.00    +0.000 C 
ATOM     17  C   UNL     1       0.481   1.454   0.249  0.00  0.00    +0.000 C 
ATOM     18  C   UNL     1       0.988   2.436  -0.794  0.00  0.00    +0.000 C 
ENDBRANCH   7  17
ENDBRANCH   1  13
BRANCH   5  19
ATOM     19  C   UNL     1      -3.478  -3.997  -1.966  0.00  0.00    +0.000 A 
ATOM     20  C   UNL     1      -2.954  -3.128  -2.913  0.00  0.00    +0.000 A 
ATOM     21  C   UNL     1      -3.680  -2.918  -4.091  0.00  0.00    +0.000 A 
ATOM     22  F   UNL     1      -3.169  -2.082  -5.020  0.00  0.00    +0.000 F 
ATOM     23  C   UNL     1      -4.883  -3.549  -4.335  0.00  0.00    +0.000 A 
ATOM     24  C   UNL     1      -5.412  -4.424  -3.394  0.00  0.00    +0.000 A 
ATOM     25  C   UNL     1      -4.692  -4.620  -2.238  0.00  0.00    +0.000 A 
ATOM     26  F   UNL     1      -5.173  -5.468  -1.296  0.00  0.00    +0.000 F 
ENDBRANCH   5  19
TORSDOF 3
