
 OpenBabel03132512083D

 64 69  0  0  0  0  0  0  0  0999 V2000
    1.0219   -0.0939    0.0265 C   0  0  0  0  0  0  0  0  0  0  0  0
    0.5319   -1.3568    0.5974 N   0  0  0  0  0  0  0  0  0  0  0  0
   -0.9381   -1.3568    0.5974 C   0  0  0  0  0  0  0  0  0  0  0  0
    1.1186   -2.7047   -0.3703 S   0  0  0  0  0  0  0  0  0  0  0  0
    0.5935   -2.5578   -1.8482 N   0  0  0  0  0  0  0  0  0  0  0  0
    2.6490   -2.7047   -0.3703 O   0  0  0  0  0  0  0  0  0  0  0  0
    0.5152   -4.2597    0.3326 C   0  0  0  0  0  0  0  0  0  0  0  0
   -0.1342   -4.2961    1.5555 C   0  0  0  0  0  0  0  0  0  0  0  0
   -0.1649   -5.5796    2.1503 C   0  0  0  0  0  0  0  0  0  0  0  0
    0.0542   -6.7101    1.5038 C   0  0  0  0  0  0  0  0  0  0  0  0
   -0.3204   -8.0581    2.0980 C   0  0  0  0  0  0  0  0  0  0  0  0
   -1.6124   -8.2927    2.5388 C   0  0  0  0  0  0  0  0  0  0  0  0
   -1.7232   -9.3811    3.4361 C   0  0  0  0  0  0  0  0  0  0  0  0
   -0.8104  -10.3236    3.5866 C   0  0  0  0  0  0  0  0  0  0  0  0
   -1.1193  -11.6315    4.2968 C   0  0  0  0  0  0  0  0  0  0  0  0
   -2.0154  -12.4833    3.6820 N   0  0  0  0  0  0  0  0  0  0  0  0
   -2.2390  -13.7552    4.2177 C   0  0  0  0  0  0  0  0  0  0  0  0
   -3.0932  -14.8786    3.8358 N   0  0  0  0  0  0  0  0  0  0  0  0
   -2.9068  -15.8340    4.6987 C   0  0  0  0  0  0  0  0  0  0  0  0
   -3.5591  -17.0949    4.6686 O   0  0  0  0  0  0  0  0  0  0  0  0
   -4.4944  -17.3860    3.6405 C   0  0  0  0  0  0  0  0  0  0  0  0
   -3.8946  -17.3095    2.4416 C   0  0  0  0  0  0  0  0  0  0  0  0
   -3.9628  -15.9432    1.9466 O   0  0  0  0  0  0  0  0  0  0  0  0
   -5.1576  -15.2795    2.6576 C   0  0  0  0  0  0  0  0  0  0  0  0
   -6.3098  -15.1523    1.6829 C   0  0  0  0  0  0  0  0  0  0  0  0
   -5.8405  -14.8257    0.3831 O   0  0  0  0  0  0  0  0  0  0  0  0
   -6.9607  -16.3481    1.6785 C   0  0  0  0  0  0  0  0  0  0  0  0
   -6.8625  -16.9714    2.9895 O   0  0  0  0  0  0  0  0  0  0  0  0
   -5.6173  -16.3688    3.6672 C   0  0  0  0  0  0  0  0  0  0  0  0
   -1.9713  -15.4400    5.6602 N   0  0  0  0  0  0  0  0  0  0  0  0
   -1.5502  -14.1570    5.3757 C   0  0  0  0  0  0  0  0  0  0  0  0
   -0.6509  -13.2863    5.9805 C   0  0  0  0  0  0  0  0  0  0  0  0
   -0.4342  -12.0378    5.4421 C   0  0  0  0  0  0  0  0  0  0  0  0
    0.7291  -10.9333    6.2135 Cl  0  0  0  0  0  0  0  0  0  0  0  0
    0.4273  -10.0596    3.0692 C   0  0  0  0  0  0  0  0  0  0  0  0
    0.6457   -8.9483    2.2913 C   0  0  0  0  0  0  0  0  0  0  0  0
    0.6362   -6.6028    0.2712 C   0  0  0  0  0  0  0  0  0  0  0  0
    0.8191   -5.3758   -0.3195 C   0  0  0  0  0  0  0  0  0  0  0  0
    0.6652    0.7256    0.6149 H   0  0  0  0  0  0  0  0  0  0  0  0
    0.6652    0.0059   -0.9773 H   0  0  0  0  0  0  0  0  0  0  0  0
    2.0919   -0.0939    0.0265 H   0  0  0  0  0  0  0  0  0  0  0  0
   -1.2948   -1.2570   -0.4065 H   0  0  0  0  0  0  0  0  0  0  0  0
   -1.2948   -2.2760    1.0129 H   0  0  0  0  0  0  0  0  0  0  0  0
   -1.2948   -0.5373    1.1857 H   0  0  0  0  0  0  0  0  0  0  0  0
   -0.4093   -2.5394   -2.0336 H   0  0  0  0  0  0  0  0  0  0  0  0
   -0.5729   -3.4320    2.0092 H   0  0  0  0  0  0  0  0  0  0  0  0
   -0.3807   -5.6383    3.1967 H   0  0  0  0  0  0  0  0  0  0  0  0
   -2.4506   -7.7043    2.2289 H   0  0  0  0  0  0  0  0  0  0  0  0
   -2.6080   -9.4450    4.0343 H   0  0  0  0  0  0  0  0  0  0  0  0
   -4.8791  -18.3716    3.8003 H   0  0  0  0  0  0  0  0  0  0  0  0
   -2.8696  -17.6010    2.5384 H   0  0  0  0  0  0  0  0  0  0  0  0
   -4.3899  -17.9624    1.7536 H   0  0  0  0  0  0  0  0  0  0  0  0
   -4.9021  -14.3268    3.0722 H   0  0  0  0  0  0  0  0  0  0  0  0
   -6.9731  -14.3739    1.9974 H   0  0  0  0  0  0  0  0  0  0  0  0
   -5.2167  -15.5395    0.0648 H   0  0  0  0  0  0  0  0  0  0  0  0
   -6.5124  -16.9901    0.9493 H   0  0  0  0  0  0  0  0  0  0  0  0
   -7.9912  -16.1900    1.4374 H   0  0  0  0  0  0  0  0  0  0  0  0
   -5.8232  -16.0426    4.6653 H   0  0  0  0  0  0  0  0  0  0  0  0
   -1.6520  -16.0085    6.4445 H   0  0  0  0  0  0  0  0  0  0  0  0
   -0.1273  -13.5863    6.8641 H   0  0  0  0  0  0  0  0  0  0  0  0
    1.2376  -10.7282    3.2729 H   0  0  0  0  0  0  0  0  0  0  0  0
    1.6030   -8.7988    1.8372 H   0  0  0  0  0  0  0  0  0  0  0  0
    0.9537   -7.4871   -0.2407 H   0  0  0  0  0  0  0  0  0  0  0  0
    1.2099   -5.3192   -1.3139 H   0  0  0  0  0  0  0  0  0  0  0  0
  1  2  1  0  0  0  0
  1 39  1  0  0  0  0
  1 40  1  0  0  0  0
  1 41  1  0  0  0  0
  2  3  1  0  0  0  0
  2  4  1  0  0  0  0
  3 42  1  0  0  0  0
  3 43  1  0  0  0  0
  3 44  1  0  0  0  0
  4  5  2  0  0  0  0
  4  6  2  0  0  0  0
  4  7  1  0  0  0  0
  5 45  1  0  0  0  0
  7  8  1  0  0  0  0
  7 38  2  0  0  0  0
  8  9  2  0  0  0  0
  8 46  1  0  0  0  0
  9 10  1  0  0  0  0
  9 47  1  0  0  0  0
 10 11  1  0  0  0  0
 10 37  2  0  0  0  0
 11 12  1  0  0  0  0
 11 36  2  0  0  0  0
 12 13  2  0  0  0  0
 12 48  1  0  0  0  0
 13 14  1  0  0  0  0
 13 49  1  0  0  0  0
 14 15  1  0  0  0  0
 14 35  2  0  0  0  0
 15 16  1  0  0  0  0
 15 33  2  0  0  0  0
 16 17  2  0  0  0  0
 17 18  1  0  0  0  0
 17 31  1  0  0  0  0
 18 19  2  0  0  0  0
 19 20  1  0  0  0  0
 19 30  1  0  0  0  0
 20 21  1  0  0  0  0
 21 22  1  0  0  0  0
 21 29  1  0  0  0  0
 21 50  1  0  0  0  0
 22 23  1  0  0  0  0
 22 51  1  0  0  0  0
 22 52  1  0  0  0  0
 23 24  1  0  0  0  0
 24 25  1  0  0  0  0
 24 29  1  0  0  0  0
 24 53  1  0  0  0  0
 25 26  1  0  0  0  0
 25 27  1  0  0  0  0
 25 54  1  0  0  0  0
 26 55  1  0  0  0  0
 27 28  1  0  0  0  0
 27 56  1  0  0  0  0
 27 57  1  0  0  0  0
 28 29  1  0  0  0  0
 29 58  1  0  0  0  0
 30 31  1  0  0  0  0
 30 59  1  0  0  0  0
 31 32  2  0  0  0  0
 32 33  1  0  0  0  0
 32 60  1  0  0  0  0
 33 34  1  0  0  0  0
 35 36  1  0  0  0  0
 35 61  1  0  0  0  0
 36 62  1  0  0  0  0
 37 38  1  0  0  0  0
 37 63  1  0  0  0  0
 38 64  1  0  0  0  0
M  END
