REMARK  Name = 
REMARK  3 active torsions:
REMARK  status: ('A' for Active; 'I' for Inactive)
REMARK    1  A    between atoms: C_1  and  C_2
REMARK    2  A    between atoms: C_6  and  C_7
REMARK    3  A    between atoms: C_12  and  C_13
REMARK                            x       y       z     vdW  Elec       q    Type
REMARK                         _______ _______ _______ _____ _____    ______ ____
ROOT
ATOM      1  C   UNL     1      -1.859   2.528   0.015  0.00  0.00    +0.000 A 
ATOM      2  N   UNL     1      -1.710   3.471  -0.991  0.00  0.00    +0.000 NA
ATOM      3  C   UNL     1      -2.464   4.510  -0.749  0.00  0.00    +0.000 A 
ATOM      4  N   UNL     1      -2.533   5.593  -1.531  0.00  0.00    +0.000 N 
ATOM      5  S   UNL     1      -3.409   4.399   0.710  0.00  0.00    +0.000 S 
ATOM      6  C   UNL     1      -2.709   2.859   1.004  0.00  0.00    +0.000 A 
ATOM      7  H   UNL     1      -3.146   6.367  -1.276  0.00  0.00    +0.000 HD
ATOM      8  H   UNL     1      -1.973   5.644  -2.382  0.00  0.00    +0.000 HD
ENDROOT
BRANCH   6   9
ATOM      9  C   UNL     1      -3.009   1.990   2.214  0.00  0.00    +0.000 A 
ATOM     10  C   UNL     1      -1.906   1.682   3.026  0.00  0.00    +0.000 A 
ATOM     11  C   UNL     1      -2.088   1.017   4.209  0.00  0.00    +0.000 A 
ATOM     12  C   UNL     1      -3.426   0.692   4.552  0.00  0.00    +0.000 A 
ATOM     13  N   UNL     1      -3.654   0.036   5.732  0.00  0.00    +0.000 NA
ATOM     14  C   UNL     1      -4.896  -0.252   6.022  0.00  0.00    +0.000 A 
ATOM     15  C   UNL     1      -5.990   0.081   5.219  0.00  0.00    +0.000 A 
ATOM     16  C   UNL     1      -5.770   0.734   4.057  0.00  0.00    +0.000 A 
ATOM     17  C   UNL     1      -4.463   1.059   3.677  0.00  0.00    +0.000 A 
ATOM     18  N   UNL     1      -4.249   1.706   2.498  0.00  0.00    +0.000 NA
ENDBRANCH   6   9
BRANCH   1  24
ATOM     19  C   UNL     1       2.492   0.004  -0.014  0.00  0.00    +0.000 C 
ATOM     20  C   UNL     1       0.991  -0.005   0.013  0.00  0.00    +0.000 A 
ATOM     21  C   UNL     1       0.258  -1.197   0.006  0.00  0.00    +0.000 A 
ATOM     22  C   UNL     1      -1.108  -1.202   0.001  0.00  0.00    +0.000 A 
ATOM     23  C   UNL     1      -1.799   0.010  -0.013  0.00  0.00    +0.000 A 
ATOM     24  C   UNL     1      -1.109   1.206   0.002  0.00  0.00    +0.000 A 
ATOM     25  C   UNL     1       0.275   1.184   0.005  0.00  0.00    +0.000 A 
ENDBRANCH   1  24
TORSDOF 2
