
 OpenBabel03132512093D

 46 49  0  0  0  0  0  0  0  0999 V2000
   -2.0840   -0.7070    0.0020 C   0  0  0  0  0  0  0  0  0  0  0  0
   -2.0960    0.6520   -0.0030 C   0  0  0  0  0  0  0  0  0  0  0  0
   -0.9520    1.3720    0.0020 N   0  0  0  0  0  0  0  0  0  0  0  0
    0.2800    0.7150    0.0010 N   0  0  0  0  0  0  0  0  0  0  0  0
    1.5640    1.1080   -0.0000 N   0  0  0  0  0  0  0  0  0  0  0  0
    2.3270    0.0340   -0.0000 C   0  0  0  0  0  0  0  0  0  0  0  0
    1.5840   -1.0630   -0.0010 C   0  0  0  0  0  0  0  0  0  0  0  0
    2.1093   -2.4893   -0.0030 C   0  0  0  0  0  0  0  0  0  0  0  0
    1.7768   -3.3457   -1.0470 C   0  0  0  0  0  0  0  0  0  0  0  0
    2.6490   -4.4338   -1.2732 C   0  0  0  0  0  0  0  0  0  0  0  0
    3.2299   -5.0052   -0.1424 N   0  0  0  0  0  0  0  0  0  0  0  0
    3.3331   -4.2715    0.9455 C   0  0  0  0  0  0  0  0  0  0  0  0
    3.9375   -4.8474    2.1554 N   0  0  0  0  0  0  0  0  0  0  0  0
    4.4225   -6.2350    2.1457 C   0  0  0  0  0  0  0  0  0  0  0  0
    5.9105   -6.2539    2.4551 C   0  0  0  0  0  0  0  0  0  0  0  0
    6.1508   -5.6428    3.8259 C   0  0  0  0  0  0  0  0  0  0  0  0
    5.4291   -6.4212    4.8428 N   0  0  0  0  0  0  0  0  0  0  0  0
    5.4365   -7.8548    4.4987 C   0  0  0  0  0  0  0  0  0  0  0  0
    4.8185   -8.0461    3.1318 C   0  0  0  0  0  0  0  0  0  0  0  0
    3.4896   -7.5262    3.0935 O   0  0  0  0  0  0  0  0  0  0  0  0
    3.5047   -6.1305    3.3940 C   0  0  0  0  0  0  0  0  0  0  0  0
    4.0578   -5.8758    4.7835 C   0  0  0  0  0  0  0  0  0  0  0  0
    2.8741   -2.9498    0.9636 N   0  0  0  0  0  0  0  0  0  0  0  0
    0.3000   -0.7080   -0.0000 C   0  0  0  0  0  0  0  0  0  0  0  0
   -0.9270   -1.4040   -0.0000 C   0  0  0  0  0  0  0  0  0  0  0  0
   -3.0132   -1.2375    0.0077 H   0  0  0  0  0  0  0  0  0  0  0  0
   -3.0349    1.1651   -0.0111 H   0  0  0  0  0  0  0  0  0  0  0  0
    3.3969    0.0460    0.0007 H   0  0  0  0  0  0  0  0  0  0  0  0
    0.9054   -3.1886   -1.6478 H   0  0  0  0  0  0  0  0  0  0  0  0
    2.8523   -4.7991   -2.2582 H   0  0  0  0  0  0  0  0  0  0  0  0
    4.0204   -4.2841    3.0017 H   0  0  0  0  0  0  0  0  0  0  0  0
    3.8971   -6.8016    2.8859 H   0  0  0  0  0  0  0  0  0  0  0  0
    4.2533   -6.6652    1.1807 H   0  0  0  0  0  0  0  0  0  0  0  0
    6.2635   -7.2639    2.4480 H   0  0  0  0  0  0  0  0  0  0  0  0
    6.4359   -5.6872    1.7149 H   0  0  0  0  0  0  0  0  0  0  0  0
    7.1983   -5.6560    4.0437 H   0  0  0  0  0  0  0  0  0  0  0  0
    5.7978   -4.6327    3.8330 H   0  0  0  0  0  0  0  0  0  0  0  0
    4.8718   -8.3999    5.2258 H   0  0  0  0  0  0  0  0  0  0  0  0
    6.4442   -8.2143    4.4884 H   0  0  0  0  0  0  0  0  0  0  0  0
    5.4112   -7.5197    2.4131 H   0  0  0  0  0  0  0  0  0  0  0  0
    4.7920   -9.0910    2.9030 H   0  0  0  0  0  0  0  0  0  0  0  0
    2.5000   -5.7643    3.3563 H   0  0  0  0  0  0  0  0  0  0  0  0
    4.1169   -5.6253    2.6764 H   0  0  0  0  0  0  0  0  0  0  0  0
    3.4406   -6.3484    5.5187 H   0  0  0  0  0  0  0  0  0  0  0  0
    4.0779   -4.8238    4.9779 H   0  0  0  0  0  0  0  0  0  0  0  0
   -0.9410   -2.4739   -0.0016 H   0  0  0  0  0  0  0  0  0  0  0  0
  1  2  1  0  0  0  0
  1 25  2  0  0  0  0
  1 26  1  0  0  0  0
  2  3  2  0  0  0  0
  2 27  1  0  0  0  0
  3  4  1  0  0  0  0
  4  5  1  0  0  0  0
  4 24  1  0  0  0  0
  5  6  2  0  0  0  0
  6  7  1  0  0  0  0
  6 28  1  0  0  0  0
  7  8  1  0  0  0  0
  7 24  2  0  0  0  0
  8  9  1  0  0  0  0
  8 23  2  0  0  0  0
  9 10  2  0  0  0  0
  9 29  1  0  0  0  0
 10 11  1  0  0  0  0
 10 30  1  0  0  0  0
 11 12  2  0  0  0  0
 12 13  1  0  0  0  0
 12 23  1  0  0  0  0
 13 14  1  0  0  0  0
 13 31  1  0  0  0  0
 14 15  1  0  0  0  0
 14 32  1  0  0  0  0
 14 33  1  0  0  0  0
 15 16  1  0  0  0  0
 15 34  1  0  0  0  0
 15 35  1  0  0  0  0
 16 17  1  0  0  0  0
 16 36  1  0  0  0  0
 16 37  1  0  0  0  0
 17 18  1  0  0  0  0
 17 22  1  0  0  0  0
 18 19  1  0  0  0  0
 18 38  1  0  0  0  0
 18 39  1  0  0  0  0
 19 20  1  0  0  0  0
 19 40  1  0  0  0  0
 19 41  1  0  0  0  0
 20 21  1  0  0  0  0
 21 22  1  0  0  0  0
 21 42  1  0  0  0  0
 21 43  1  0  0  0  0
 22 44  1  0  0  0  0
 22 45  1  0  0  0  0
 24 25  1  0  0  0  0
 25 46  1  0  0  0  0
M  END
