REMARK  Name = 
REMARK  8 active torsions:
REMARK  status: ('A' for Active; 'I' for Inactive)
REMARK    1  A    between atoms: C_1  and  S_2
REMARK    2  A    between atoms: S_2  and  N_37
REMARK    3  A    between atoms: N_4  and  C_5
REMARK    4  A    between atoms: C_8  and  C_9
REMARK    5  A    between atoms: C_12  and  C_13
REMARK    6  A    between atoms: C_17  and  O_18
REMARK    7  A    between atoms: O_18  and  C_19
REMARK    8  A    between atoms: C_23  and  O_24
REMARK                            x       y       z     vdW  Elec       q    Type
REMARK                         _______ _______ _______ _____ _____    ______ ____
ROOT
ATOM      1  C   UNL     1      -5.598  -6.245  -5.206  0.00  0.00    +0.000 A 
ATOM      2  N   UNL     1      -4.768  -6.846  -6.132  0.00  0.00    +0.000 NA
ATOM      3  C   UNL     1      -5.231  -7.942  -6.866  0.00  0.00    +0.000 A 
ATOM      4  N   UNL     1      -4.638  -8.793  -7.896  0.00  0.00    +0.000 NA
ATOM      5  C   UNL     1      -5.525  -9.681  -8.241  0.00  0.00    +0.000 A 
ATOM      6  N   UNL     1      -6.702  -9.496  -7.509  0.00  0.00    +0.000 N 
ATOM      7  C   UNL     1      -6.535  -8.425  -6.655  0.00  0.00    +0.000 A 
ATOM      8  C   UNL     1      -7.356  -7.807  -5.718  0.00  0.00    +0.000 A 
ATOM      9  C   UNL     1      -6.889  -6.731  -4.997  0.00  0.00    +0.000 A 
ATOM     10 CL   UNL     1      -7.940  -5.955  -3.789  0.00  0.00    +0.000 Cl
ATOM     11  H   UNL     1      -7.547 -10.061  -7.593  0.00  0.00    +0.000 HD
ENDROOT
BRANCH   1  15
ATOM     12  C   UNL     1      -3.883  -2.780  -3.390  0.00  0.00    +0.000 A 
ATOM     13  C   UNL     1      -3.866  -2.884  -4.771  0.00  0.00    +0.000 A 
ATOM     14  C   UNL     1      -4.647  -3.951  -5.275  0.00  0.00    +0.000 A 
ATOM     15  C   UNL     1      -5.065  -4.978  -4.557  0.00  0.00    +0.000 A 
ATOM     16  C   UNL     1      -4.992  -4.840  -3.199  0.00  0.00    +0.000 A 
ATOM     17  C   UNL     1      -4.360  -3.760  -2.631  0.00  0.00    +0.000 A 
BRANCH  12  21
ATOM     18  C   UNL     1      -2.000   0.504  -1.413  0.00  0.00    +0.000 A 
ATOM     19  C   UNL     1      -3.036   0.764  -2.296  0.00  0.00    +0.000 A 
ATOM     20  C   UNL     1      -3.729  -0.393  -2.723  0.00  0.00    +0.000 A 
ATOM     21  C   UNL     1      -3.264  -1.625  -2.621  0.00  0.00    +0.000 A 
ATOM     22  C   UNL     1      -2.197  -1.805  -1.785  0.00  0.00    +0.000 A 
ATOM     23  C   UNL     1      -1.549  -0.730  -1.226  0.00  0.00    +0.000 A 
BRANCH  18  27
ATOM     24  C   UNL     1       0.913   0.021   0.045  0.00  0.00    +0.000 C 
ATOM     25  S   UNL     1       0.310   1.557  -0.698  0.00  0.00    +0.000 S 
ATOM     26  O   UNL     1       0.820   1.663  -2.137  0.00  0.00    +0.000 OA
ATOM     27  N   UNL     1      -1.265   1.557  -0.698  0.00  0.00    +0.000 NA
BRANCH  25  28
ATOM     28  N   UNL     1       0.897   2.930   0.235  0.00  0.00    +0.000 NA
ATOM     29  C   UNL     1       0.876   4.278  -0.507  0.00  0.00    +0.000 C 
ATOM     30  C   UNL     1       0.480   4.919   0.833  0.00  0.00    +0.000 C 
ATOM     31  C   UNL     1      -0.099   3.552   1.231  0.00  0.00    +0.000 C 
ENDBRANCH  25  28
ENDBRANCH  18  27
ENDBRANCH  12  21
ENDBRANCH   1  15
BRANCH   5  32
ATOM     32  O   UNL     1      -5.327 -10.691  -9.219  0.00  0.00    +0.000 OA
BRANCH  32  33
ATOM     33  C   UNL     1      -4.085 -10.783  -9.902  0.00  0.00    +0.000 C 
ATOM     34  C   UNL     1      -3.095 -10.994  -9.020  0.00  0.00    +0.000 C 
ATOM     35  O   UNL     1      -2.590  -9.718  -8.537  0.00  0.00    +0.000 OA
ATOM     36  C   UNL     1      -2.942  -8.673  -9.612  0.00  0.00    +0.000 C 
ATOM     37  C   UNL     1      -1.689  -8.303 -10.378  0.00  0.00    +0.000 C 
ATOM     38  C   UNL     1      -1.516  -9.252 -11.339  0.00  0.00    +0.000 C 
ATOM     39  O   UNL     1      -2.809  -9.756 -11.778  0.00  0.00    +0.000 OA
ATOM     40  C   UNL     1      -3.796  -9.484 -10.627  0.00  0.00    +0.000 C 
BRANCH  37  41
ATOM     41  O   UNL     1      -0.565  -8.247  -9.512  0.00  0.00    +0.000 OA
ATOM     42  H   UNL     1      -0.434  -9.138  -9.077  0.00  0.00    +0.000 HD
ENDBRANCH  37  41
ENDBRANCH  32  33
ENDBRANCH   5  32
TORSDOF 7
