REMARK  Name = 
REMARK  10 active torsions:
REMARK  status: ('A' for Active; 'I' for Inactive)
REMARK    1  A    between atoms: C_1  and  N_2
REMARK    2  A    between atoms: N_2  and  C_3
REMARK    3  A    between atoms: N_2  and  S_4
REMARK    4  A    between atoms: S_4  and  C_5
REMARK    5  A    between atoms: N_7  and  C_8
REMARK    6  A    between atoms: C_11  and  C_12
REMARK    7  A    between atoms: C_15  and  C_16
REMARK    8  A    between atoms: C_20  and  O_21
REMARK    9  A    between atoms: O_21  and  C_22
REMARK   10  A    between atoms: C_26  and  O_27
REMARK                            x       y       z     vdW  Elec       q    Type
REMARK                         _______ _______ _______ _____ _____    ______ ____
ROOT
ATOM      1  C   UNL     1       2.777 -12.226   5.749  0.00  0.00    +0.000 A 
ATOM      2  N   UNL     1       3.181 -13.197   4.854  0.00  0.00    +0.000 NA
ATOM      3  C   UNL     1       3.531 -14.466   5.323  0.00  0.00    +0.000 A 
ATOM      4  N   UNL     1       3.989 -15.694   4.674  0.00  0.00    +0.000 NA
ATOM      5  C   UNL     1       4.172 -16.590   5.599  0.00  0.00    +0.000 A 
ATOM      6  N   UNL     1       3.868 -16.057   6.855  0.00  0.00    +0.000 N 
ATOM      7  C   UNL     1       3.470 -14.745   6.700  0.00  0.00    +0.000 A 
ATOM      8  C   UNL     1       3.062 -13.755   7.586  0.00  0.00    +0.000 A 
ATOM      9  C   UNL     1       2.724 -12.506   7.115  0.00  0.00    +0.000 A 
ATOM     10 CL   UNL     1       2.216 -11.238   8.257  0.00  0.00    +0.000 Cl
ATOM     11  H   UNL     1       3.930 -16.556   7.742  0.00  0.00    +0.000 HD
ENDROOT
BRANCH   1  15
ATOM     12  C   UNL     1       2.053  -8.250   4.368  0.00  0.00    +0.000 A 
ATOM     13  C   UNL     1       1.306  -9.286   3.832  0.00  0.00    +0.000 A 
ATOM     14  C   UNL     1       1.468 -10.518   4.509  0.00  0.00    +0.000 A 
ATOM     15  C   UNL     1       2.468 -10.800   5.324  0.00  0.00    +0.000 A 
ATOM     16  C   UNL     1       3.211  -9.739   5.764  0.00  0.00    +0.000 A 
ATOM     17  C   UNL     1       3.023  -8.481   5.245  0.00  0.00    +0.000 A 
BRANCH  12  21
ATOM     18  C   UNL     1       0.958  -4.326   3.085  0.00  0.00    +0.000 A 
ATOM     19  C   UNL     1      -0.025  -5.157   3.595  0.00  0.00    +0.000 A 
ATOM     20  C   UNL     1       0.475  -6.340   4.189  0.00  0.00    +0.000 A 
ATOM     21  C   UNL     1       1.687  -6.824   3.987  0.00  0.00    +0.000 A 
ATOM     22  C   UNL     1       2.595  -5.975   3.417  0.00  0.00    +0.000 A 
ATOM     23  C   UNL     1       2.207  -4.750   2.931  0.00  0.00    +0.000 A 
BRANCH  18  27
ATOM     24  S   UNL     1       1.128  -2.273   1.437  0.00  0.00    +0.000 S 
ATOM     25  C   UNL     1       0.525  -3.215   0.014  0.00  0.00    +0.000 C 
ATOM     26  O   UNL     1       2.659  -2.273   1.437  0.00  0.00    +0.000 OA
ATOM     27  N   UNL     1       0.603  -2.935   2.766  0.00  0.00    +0.000 NA
BRANCH  24  29
ATOM     28  C   UNL     1       1.032   0.001   0.095  0.00  0.00    +0.000 C 
ATOM     29  N   UNL     1       0.542  -0.617   1.335  0.00  0.00    +0.000 NA
ATOM     30  C   UNL     1      -0.928  -0.617   1.335  0.00  0.00    +0.000 C 
ENDBRANCH  24  29
ENDBRANCH  18  27
ENDBRANCH  12  21
ENDBRANCH   1  15
BRANCH   5  31
ATOM     31  O   UNL     1       4.616 -17.919   5.367  0.00  0.00    +0.000 OA
BRANCH  31  32
ATOM     32  C   UNL     1       4.896 -18.353   4.044  0.00  0.00    +0.000 C 
ATOM     33  C   UNL     1       5.867 -17.591   3.515  0.00  0.00    +0.000 C 
ATOM     34  O   UNL     1       5.284 -16.400   2.917  0.00  0.00    +0.000 OA
ATOM     35  C   UNL     1       3.816 -16.744   2.598  0.00  0.00    +0.000 C 
ATOM     36  C   UNL     1       3.666 -16.949   1.105  0.00  0.00    +0.000 C 
ATOM     37  C   UNL     1       4.037 -18.232   0.841  0.00  0.00    +0.000 C 
ATOM     38  O   UNL     1       3.717 -19.085   1.975  0.00  0.00    +0.000 OA
ATOM     39  C   UNL     1       3.646 -18.164   3.208  0.00  0.00    +0.000 C 
BRANCH  36  40
ATOM     40  O   UNL     1       4.472 -16.029   0.383  0.00  0.00    +0.000 OA
ATOM     41  H   UNL     1       5.430 -16.154   0.638  0.00  0.00    +0.000 HD
ENDBRANCH  36  40
ENDBRANCH  31  32
ENDBRANCH   5  31
TORSDOF 7
