
 OpenBabel03132512083D

 67 72  0  0  0  0  0  0  0  0999 V2000
    0.9365   -0.0526   -0.0567 C   0  0  0  0  0  0  0  0  0  0  0  0
    0.4299   -0.2307    1.3653 C   0  0  0  0  0  0  0  0  0  0  0  0
    0.9199    0.8741    2.2021 N   0  0  0  0  0  0  0  0  0  0  0  0
    0.3332    0.6677    3.8486 S   0  0  0  0  0  0  0  0  0  0  0  0
    0.9365   -0.9047    4.5115 C   0  0  0  0  0  0  0  0  0  0  0  0
    0.8433    1.8179    4.7198 O   0  0  0  0  0  0  0  0  0  0  0  0
   -1.2420    0.6677    3.8486 N   0  0  0  0  0  0  0  0  0  0  0  0
   -1.9770    0.5095    5.1118 C   0  0  0  0  0  0  0  0  0  0  0  0
   -3.0639   -0.3476    5.1643 C   0  0  0  0  0  0  0  0  0  0  0  0
   -3.8648   -0.1877    6.3197 C   0  0  0  0  0  0  0  0  0  0  0  0
   -3.4748    0.4258    7.4222 C   0  0  0  0  0  0  0  0  0  0  0  0
   -4.2303    0.2753    8.7325 C   0  0  0  0  0  0  0  0  0  0  0  0
   -4.3795   -0.9833    9.2914 C   0  0  0  0  0  0  0  0  0  0  0  0
   -5.3428   -1.0405   10.3262 C   0  0  0  0  0  0  0  0  0  0  0  0
   -5.8085    0.0113   10.9749 C   0  0  0  0  0  0  0  0  0  0  0  0
   -6.5695   -0.1272   12.2834 C   0  0  0  0  0  0  0  0  0  0  0  0
   -5.9557   -0.7059   13.3764 N   0  0  0  0  0  0  0  0  0  0  0  0
   -6.6582   -0.8290   14.5789 C   0  0  0  0  0  0  0  0  0  0  0  0
   -6.3261   -1.3747   15.8940 N   0  0  0  0  0  0  0  0  0  0  0  0
   -7.3670   -1.2312   16.6609 C   0  0  0  0  0  0  0  0  0  0  0  0
   -7.4383   -1.6397   18.0190 O   0  0  0  0  0  0  0  0  0  0  0  0
   -6.3171   -2.2563   18.6347 C   0  0  0  0  0  0  0  0  0  0  0  0
   -5.2797   -1.4046   18.5959 C   0  0  0  0  0  0  0  0  0  0  0  0
   -4.5903   -1.5309   17.3210 O   0  0  0  0  0  0  0  0  0  0  0  0
   -4.9202   -2.9362   16.7827 C   0  0  0  0  0  0  0  0  0  0  0  0
   -3.7097   -3.8309   16.9496 C   0  0  0  0  0  0  0  0  0  0  0  0
   -2.5104   -3.1135   16.6974 O   0  0  0  0  0  0  0  0  0  0  0  0
   -3.7356   -4.3007   18.2272 C   0  0  0  0  0  0  0  0  0  0  0  0
   -5.1122   -4.4358   18.6784 O   0  0  0  0  0  0  0  0  0  0  0  0
   -5.9513   -3.4762   17.8135 C   0  0  0  0  0  0  0  0  0  0  0  0
   -8.4055   -0.6166   15.9548 N   0  0  0  0  0  0  0  0  0  0  0  0
   -7.9817   -0.3625   14.6663 C   0  0  0  0  0  0  0  0  0  0  0  0
   -8.5832    0.2183   13.5557 C   0  0  0  0  0  0  0  0  0  0  0  0
   -7.8809    0.3393   12.3776 C   0  0  0  0  0  0  0  0  0  0  0  0
   -8.6523    1.0968   10.9636 Cl  0  0  0  0  0  0  0  0  0  0  0  0
   -5.5694    1.2314   10.4062 C   0  0  0  0  0  0  0  0  0  0  0  0
   -4.7441    1.3526    9.3144 C   0  0  0  0  0  0  0  0  0  0  0  0
   -2.3549    1.2037    7.3217 C   0  0  0  0  0  0  0  0  0  0  0  0
   -1.5929    1.2010    6.1783 C   0  0  0  0  0  0  0  0  0  0  0  0
    0.5799    0.8770   -0.4485 H   0  0  0  0  0  0  0  0  0  0  0  0
    0.5799   -0.8567   -0.6658 H   0  0  0  0  0  0  0  0  0  0  0  0
    2.0065   -0.0526   -0.0567 H   0  0  0  0  0  0  0  0  0  0  0  0
   -0.6401   -0.2307    1.3653 H   0  0  0  0  0  0  0  0  0  0  0  0
    0.7865   -1.1603    1.7572 H   0  0  0  0  0  0  0  0  0  0  0  0
    1.9399    0.8741    2.2021 H   0  0  0  0  0  0  0  0  0  0  0  0
    2.0065   -0.9047    4.5115 H   0  0  0  0  0  0  0  0  0  0  0  0
    0.5798   -1.0302    5.5124 H   0  0  0  0  0  0  0  0  0  0  0  0
    0.5798   -1.7089    3.9024 H   0  0  0  0  0  0  0  0  0  0  0  0
   -3.2784   -1.0655    4.4004 H   0  0  0  0  0  0  0  0  0  0  0  0
   -4.8552   -0.5920    6.2987 H   0  0  0  0  0  0  0  0  0  0  0  0
   -3.8172   -1.8350    8.9698 H   0  0  0  0  0  0  0  0  0  0  0  0
   -5.7201   -2.0030   10.6024 H   0  0  0  0  0  0  0  0  0  0  0  0
   -6.5430   -2.5217   19.6464 H   0  0  0  0  0  0  0  0  0  0  0  0
   -5.6388   -0.4028   18.7073 H   0  0  0  0  0  0  0  0  0  0  0  0
   -4.6016   -1.6332   19.3913 H   0  0  0  0  0  0  0  0  0  0  0  0
   -5.2389   -2.9126   15.7615 H   0  0  0  0  0  0  0  0  0  0  0  0
   -3.7564   -4.6454   16.2574 H   0  0  0  0  0  0  0  0  0  0  0  0
   -2.4421   -2.3445   17.3330 H   0  0  0  0  0  0  0  0  0  0  0  0
   -3.2220   -3.6126   18.8656 H   0  0  0  0  0  0  0  0  0  0  0  0
   -3.2552   -5.2561   18.2634 H   0  0  0  0  0  0  0  0  0  0  0  0
   -6.8227   -3.9535   17.4164 H   0  0  0  0  0  0  0  0  0  0  0  0
   -9.3267   -0.3924   16.3309 H   0  0  0  0  0  0  0  0  0  0  0  0
   -9.5914    0.5713   13.6164 H   0  0  0  0  0  0  0  0  0  0  0  0
   -6.0316    2.1045   10.8173 H   0  0  0  0  0  0  0  0  0  0  0  0
   -4.5132    2.3240    8.9296 H   0  0  0  0  0  0  0  0  0  0  0  0
   -2.0677    1.8235    8.1452 H   0  0  0  0  0  0  0  0  0  0  0  0
   -0.6818    1.7612    6.1470 H   0  0  0  0  0  0  0  0  0  0  0  0
  1  2  1  0  0  0  0
  1 40  1  0  0  0  0
  1 41  1  0  0  0  0
  1 42  1  0  0  0  0
  2  3  1  0  0  0  0
  2 43  1  0  0  0  0
  2 44  1  0  0  0  0
  3  4  1  0  0  0  0
  3 45  1  0  0  0  0
  4  5  1  0  0  0  0
  4  6  2  0  0  0  0
  4  7  2  0  0  0  0
  5 46  1  0  0  0  0
  5 47  1  0  0  0  0
  5 48  1  0  0  0  0
  7  8  1  0  0  0  0
  8  9  1  0  0  0  0
  8 39  2  0  0  0  0
  9 10  2  0  0  0  0
  9 49  1  0  0  0  0
 10 11  1  0  0  0  0
 10 50  1  0  0  0  0
 11 12  1  0  0  0  0
 11 38  2  0  0  0  0
 12 13  1  0  0  0  0
 12 37  2  0  0  0  0
 13 14  2  0  0  0  0
 13 51  1  0  0  0  0
 14 15  1  0  0  0  0
 14 52  1  0  0  0  0
 15 16  1  0  0  0  0
 15 36  2  0  0  0  0
 16 17  1  0  0  0  0
 16 34  2  0  0  0  0
 17 18  2  0  0  0  0
 18 19  1  0  0  0  0
 18 32  1  0  0  0  0
 19 20  2  0  0  0  0
 20 21  1  0  0  0  0
 20 31  1  0  0  0  0
 21 22  1  0  0  0  0
 22 23  1  0  0  0  0
 22 30  1  0  0  0  0
 22 53  1  0  0  0  0
 23 24  1  0  0  0  0
 23 54  1  0  0  0  0
 23 55  1  0  0  0  0
 24 25  1  0  0  0  0
 25 26  1  0  0  0  0
 25 30  1  0  0  0  0
 25 56  1  0  0  0  0
 26 27  1  0  0  0  0
 26 28  1  0  0  0  0
 26 57  1  0  0  0  0
 27 58  1  0  0  0  0
 28 29  1  0  0  0  0
 28 59  1  0  0  0  0
 28 60  1  0  0  0  0
 29 30  1  0  0  0  0
 30 61  1  0  0  0  0
 31 32  1  0  0  0  0
 31 62  1  0  0  0  0
 32 33  2  0  0  0  0
 33 34  1  0  0  0  0
 33 63  1  0  0  0  0
 34 35  1  0  0  0  0
 36 37  1  0  0  0  0
 36 64  1  0  0  0  0
 37 65  1  0  0  0  0
 38 39  1  0  0  0  0
 38 66  1  0  0  0  0
 39 67  1  0  0  0  0
M  END
