REMARK  Name = 
REMARK  7 active torsions:
REMARK  status: ('A' for Active; 'I' for Inactive)
REMARK    1  A    between atoms: C_2  and  C_3
REMARK    2  A    between atoms: C_3  and  O_4
REMARK    3  A    between atoms: O_4  and  C_5
REMARK    4  A    between atoms: C_9  and  O_10
REMARK    5  A    between atoms: O_10  and  C_11
REMARK    6  A    between atoms: C_15  and  C_16
REMARK    7  A    between atoms: C_19  and  C_20
REMARK                            x       y       z     vdW  Elec       q    Type
REMARK                         _______ _______ _______ _____ _____    ______ ____
ROOT
ATOM      1  C   UNL     1       0.986   4.642   4.212  0.00  0.00    +0.000 A 
ATOM      2  N   UNL     1       0.199   4.101   5.095  0.00  0.00    +0.000 NA
ATOM      3  C   UNL     1      -0.867   5.056   5.392  0.00  0.00    +0.000 A 
ATOM      4  N   UNL     1      -1.977   5.035   6.242  0.00  0.00    +0.000 NA
ATOM      5  C   UNL     1      -2.817   6.130   6.295  0.00  0.00    +0.000 A 
ATOM      6  C   UNL     1      -2.565   7.249   5.502  0.00  0.00    +0.000 A 
ATOM      7 CL   UNL     1      -3.666   8.646   5.572  0.00  0.00    +0.000 Cl
ATOM      8  C   UNL     1      -1.472   7.282   4.666  0.00  0.00    +0.000 A 
ATOM      9  C   UNL     1      -0.615   6.190   4.599  0.00  0.00    +0.000 A 
ATOM     10  N   UNL     1       0.530   5.920   3.878  0.00  0.00    +0.000 N 
ATOM     11  H   UNL     1       0.971   6.551   3.209  0.00  0.00    +0.000 HD
ENDROOT
BRANCH   5  12
ATOM     12  C   UNL     1      -4.021   6.115   7.223  0.00  0.00    +0.000 A 
ATOM     13  C   UNL     1      -3.852   5.965   8.585  0.00  0.00    +0.000 A 
ATOM     14  C   UNL     1      -4.896   5.951   9.398  0.00  0.00    +0.000 A 
ATOM     15  C   UNL     1      -6.131   6.085   8.944  0.00  0.00    +0.000 A 
ATOM     16  C   UNL     1      -6.374   6.238   7.593  0.00  0.00    +0.000 A 
ATOM     17  C   UNL     1      -5.303   6.252   6.711  0.00  0.00    +0.000 A 
BRANCH  15  18
ATOM     18  C   UNL     1      -7.296   6.069   9.920  0.00  0.00    +0.000 A 
ATOM     19  C   UNL     1      -7.379   7.012  10.924  0.00  0.00    +0.000 A 
ATOM     20  C   UNL     1      -8.391   7.005  11.778  0.00  0.00    +0.000 A 
ATOM     21  C   UNL     1      -9.357   6.105  11.699  0.00  0.00    +0.000 A 
ATOM     22  C   UNL     1      -9.338   5.131  10.719  0.00  0.00    +0.000 A 
ATOM     23  C   UNL     1      -8.290   5.106   9.812  0.00  0.00    +0.000 A 
ENDBRANCH  15  18
ENDBRANCH   5  12
BRANCH   1  24
ATOM     24  O   UNL     1       2.119   3.986   3.663  0.00  0.00    +0.000 OA
BRANCH  24  29
ATOM     25  C   UNL     1      -1.156   1.974   1.614  0.00  0.00    +0.000 C 
ATOM     26  C   UNL     1      -1.285   3.119   2.303  0.00  0.00    +0.000 C 
ATOM     27  O   UNL     1      -0.089   3.929   2.134  0.00  0.00    +0.000 OA
ATOM     28  C   UNL     1       1.046   2.959   1.755  0.00  0.00    +0.000 C 
ATOM     29  C   UNL     1       1.959   2.769   2.949  0.00  0.00    +0.000 C 
ATOM     30  C   UNL     1       1.389   1.815   3.736  0.00  0.00    +0.000 C 
ATOM     31  O   UNL     1       0.656   0.865   2.913  0.00  0.00    +0.000 OA
ATOM     32  C   UNL     1       0.311   1.598   1.603  0.00  0.00    +0.000 C 
BRANCH  25  33
ATOM     33  O   UNL     1      -1.630   2.156   0.288  0.00  0.00    +0.000 OA
BRANCH  33  34
ATOM     34  C   UNL     1      -1.156   1.099  -0.534  0.00  0.00    +0.000 C 
BRANCH  34  36
ATOM     35  C   UNL     1       1.044   0.008  -0.089  0.00  0.00    +0.000 C 
ATOM     36  C   UNL     1       0.364   1.099  -0.534  0.00  0.00    +0.000 C 
ENDBRANCH  34  36
ENDBRANCH  33  34
ENDBRANCH  25  33
ENDBRANCH  24  29
ENDBRANCH   1  24
TORSDOF 7
