REMARK  Name = 
REMARK  7 active torsions:
REMARK  status: ('A' for Active; 'I' for Inactive)
REMARK    1  A    between atoms: C_2  and  O_3
REMARK    2  A    between atoms: O_3  and  C_4
REMARK    3  A    between atoms: C_7  and  C_8
REMARK    4  A    between atoms: C_11  and  C_12
REMARK    5  A    between atoms: C_16  and  O_17
REMARK    6  A    between atoms: O_17  and  C_18
REMARK    7  A    between atoms: C_22  and  O_23
REMARK                            x       y       z     vdW  Elec       q    Type
REMARK                         _______ _______ _______ _____ _____    ______ ____
ROOT
ATOM      1  C   UNL     1       5.366   6.333   2.303  0.00  0.00    +0.000 A 
ATOM      2  N   UNL     1       4.048   6.712   2.463  0.00  0.00    +0.000 NA
ATOM      3  C   UNL     1       3.741   7.842   3.227  0.00  0.00    +0.000 A 
ATOM      4  N   UNL     1       2.492   8.509   3.592  0.00  0.00    +0.000 NA
ATOM      5  C   UNL     1       2.789   9.536   4.334  0.00  0.00    +0.000 A 
ATOM      6  N   UNL     1       4.174   9.623   4.505  0.00  0.00    +0.000 N 
ATOM      7  C   UNL     1       4.775   8.583   3.827  0.00  0.00    +0.000 A 
ATOM      8  C   UNL     1       6.096   8.185   3.656  0.00  0.00    +0.000 A 
ATOM      9  C   UNL     1       6.387   7.068   2.905  0.00  0.00    +0.000 A 
ATOM     10 CL   UNL     1       8.080   6.558   2.702  0.00  0.00    +0.000 Cl
ATOM     11  H   UNL     1       4.660  10.339   5.045  0.00  0.00    +0.000 HD
ENDROOT
BRANCH   1  15
ATOM     12  C   UNL     1       6.320   2.622   0.418  0.00  0.00    +0.000 A 
ATOM     13  C   UNL     1       5.648   3.586  -0.314  0.00  0.00    +0.000 A 
ATOM     14  C   UNL     1       5.577   4.846   0.325  0.00  0.00    +0.000 A 
ATOM     15  C   UNL     1       5.782   5.044   1.615  0.00  0.00    +0.000 A 
ATOM     16  C   UNL     1       6.388   4.026   2.297  0.00  0.00    +0.000 A 
ATOM     17  C   UNL     1       6.610   2.809   1.700  0.00  0.00    +0.000 A 
BRANCH  12  21
ATOM     18  C   UNL     1       4.338   0.093  -1.166  0.00  0.00    +0.000 C 
ATOM     19  C   UNL     1       4.846   1.368  -1.851  0.00  0.00    +0.000 C 
ATOM     20  C   UNL     1       6.365   1.480  -1.780  0.00  0.00    +0.000 C 
ATOM     21  C   UNL     1       6.856   1.420  -0.343  0.00  0.00    +0.000 C 
ATOM     22  C   UNL     1       6.361   0.144   0.326  0.00  0.00    +0.000 C 
ATOM     23  C   UNL     1       4.844   0.038   0.273  0.00  0.00    +0.000 C 
BRANCH  18  24
ATOM     24  O   UNL     1       2.918   0.093  -1.166  0.00  0.00    +0.000 OA
BRANCH  24  26
ATOM     25  O   UNL     1       0.937  -0.055   0.055  0.00  0.00    +0.000 OA
ATOM     26  C   UNL     1       2.208  -0.055   0.055  0.00  0.00    +0.000 C 
ATOM     27  N   UNL     1       2.943  -0.209   1.318  0.00  0.00    +0.000 N 
ATOM     28  C   UNL     1       2.620  -1.200   2.362  0.00  0.00    +0.000 C 
ATOM     29  C   UNL     1       2.389  -0.488   3.675  0.00  0.00    +0.000 C 
ATOM     30  O   UNL     1       3.531   0.282   4.049  0.00  0.00    +0.000 OA
ATOM     31  C   UNL     1       3.808   1.259   3.045  0.00  0.00    +0.000 C 
ATOM     32  C   UNL     1       4.112   0.603   1.712  0.00  0.00    +0.000 C 
ENDBRANCH  24  26
ENDBRANCH  18  24
ENDBRANCH  12  21
ENDBRANCH   1  15
BRANCH   5  33
ATOM     33  O   UNL     1       1.843  10.438   4.888  0.00  0.00    +0.000 OA
BRANCH  33  34
ATOM     34  C   UNL     1       0.456  10.251   4.646  0.00  0.00    +0.000 C 
ATOM     35  C   UNL     1       0.073   9.054   5.117  0.00  0.00    +0.000 C 
ATOM     36  O   UNL     1       0.237   8.045   4.082  0.00  0.00    +0.000 OA
ATOM     37  C   UNL     1       0.208   8.792   2.735  0.00  0.00    +0.000 C 
ATOM     38  C   UNL     1      -1.123   8.543   2.056  0.00  0.00    +0.000 C 
ATOM     39  C   UNL     1      -2.010   9.432   2.582  0.00  0.00    +0.000 C 
ATOM     40  O   UNL     1      -1.322  10.660   2.950  0.00  0.00    +0.000 OA
ATOM     41  C   UNL     1       0.158  10.286   3.160  0.00  0.00    +0.000 C 
BRANCH  38  42
ATOM     42  O   UNL     1      -1.558   7.208   2.267  0.00  0.00    +0.000 OA
ATOM     43  H   UNL     1      -1.651   7.039   3.248  0.00  0.00    +0.000 HD
ENDBRANCH  38  42
ENDBRANCH  33  34
ENDBRANCH   5  33
TORSDOF 7
