
 OpenBabel03132512093D

 47 49  0  0  0  0  0  0  0  0999 V2000
    1.0455   -0.0854    0.0251 C   0  0  0  0  0  0  0  0  0  0  0  0
    0.5722    1.1904    0.4309 O   0  0  0  0  0  0  0  0  0  0  0  0
    0.9152    1.7008    1.7108 C   0  0  0  0  0  0  0  0  0  0  0  0
   -0.0885    2.1577    2.5188 C   0  0  0  0  0  0  0  0  0  0  0  0
    0.1858    2.5223    3.8559 C   0  0  0  0  0  0  0  0  0  0  0  0
   -0.8330    2.9503    4.6685 N   0  0  0  0  0  0  0  0  0  0  0  0
   -0.5070    3.2731    5.8898 C   0  0  0  0  0  0  0  0  0  0  0  0
    0.7454    3.2446    6.4410 N   0  0  0  0  0  0  0  0  0  0  0  0
    1.7313    2.8510    5.6714 C   0  0  0  0  0  0  0  0  0  0  0  0
    3.0968    2.8294    6.2153 N   0  0  0  0  0  0  0  0  0  0  0  0
    3.3416    3.2454    7.6038 C   0  0  0  0  0  0  0  0  0  0  0  0
    4.0934    4.3737    7.8591 C   0  0  0  0  0  0  0  0  0  0  0  0
    4.2513    4.8540    9.1527 C   0  0  0  0  0  0  0  0  0  0  0  0
    3.6355    4.1778   10.2046 C   0  0  0  0  0  0  0  0  0  0  0  0
    2.8818    3.0482    9.9470 C   0  0  0  0  0  0  0  0  0  0  0  0
    2.0785    2.2255   11.2401 Cl  0  0  0  0  0  0  0  0  0  0  0  0
    2.7476    2.5945    8.6544 C   0  0  0  0  0  0  0  0  0  0  0  0
    1.9923    1.5039    8.4115 F   0  0  0  0  0  0  0  0  0  0  0  0
    1.5169    2.4439    4.3238 C   0  0  0  0  0  0  0  0  0  0  0  0
    2.5401    1.9823    3.4648 C   0  0  0  0  0  0  0  0  0  0  0  0
    2.2380    1.6122    2.1854 C   0  0  0  0  0  0  0  0  0  0  0  0
    3.3367    1.1012    1.2678 C   0  0  0  0  0  0  0  0  0  0  0  0
    4.3635    2.1408    1.1068 N   0  0  0  0  0  0  0  0  0  0  0  0
    5.4262    1.6466    0.2193 C   0  0  0  0  0  0  0  0  0  0  0  0
    3.7552    3.3436    0.5203 C   0  0  0  0  0  0  0  0  0  0  0  0
    3.1633    3.0016   -0.8373 C   0  0  0  0  0  0  0  0  0  0  0  0
    1.7257    3.1888   -1.0806 N   0  0  0  0  0  0  0  0  0  0  0  0
    3.9113    2.5537   -1.7620 O   0  0  0  0  0  0  0  0  0  0  0  0
    0.6888   -0.3013   -0.9603 H   0  0  0  0  0  0  0  0  0  0  0  0
    0.6889   -0.8309    0.7048 H   0  0  0  0  0  0  0  0  0  0  0  0
    2.1155   -0.0854    0.0251 H   0  0  0  0  0  0  0  0  0  0  0  0
   -1.0849    2.2393    2.1373 H   0  0  0  0  0  0  0  0  0  0  0  0
   -1.3033    3.5944    6.5282 H   0  0  0  0  0  0  0  0  0  0  0  0
    3.8744    2.5258    5.6292 H   0  0  0  0  0  0  0  0  0  0  0  0
    4.5629    4.8877    7.0465 H   0  0  0  0  0  0  0  0  0  0  0  0
    4.8369    5.7299    9.3391 H   0  0  0  0  0  0  0  0  0  0  0  0
    3.7458    4.5321   11.2082 H   0  0  0  0  0  0  0  0  0  0  0  0
    3.5490    1.9229    3.8161 H   0  0  0  0  0  0  0  0  0  0  0  0
    3.7795    0.2256    1.6947 H   0  0  0  0  0  0  0  0  0  0  0  0
    2.9200    0.8604    0.3121 H   0  0  0  0  0  0  0  0  0  0  0  0
    5.0095    1.4058   -0.7363 H   0  0  0  0  0  0  0  0  0  0  0  0
    6.1735    2.4033    0.1021 H   0  0  0  0  0  0  0  0  0  0  0  0
    5.8689    0.7711    0.6462 H   0  0  0  0  0  0  0  0  0  0  0  0
    2.9818    3.7033    1.1662 H   0  0  0  0  0  0  0  0  0  0  0  0
    4.5026    4.1003    0.4031 H   0  0  0  0  0  0  0  0  0  0  0  0
    1.3285    2.9592   -1.9916 H   0  0  0  0  0  0  0  0  0  0  0  0
    1.1254    3.5482   -0.3384 H   0  0  0  0  0  0  0  0  0  0  0  0
  1  2  1  0  0  0  0
  1 29  1  0  0  0  0
  1 30  1  0  0  0  0
  1 31  1  0  0  0  0
  2  3  1  0  0  0  0
  3  4  1  0  0  0  0
  3 21  2  0  0  0  0
  4  5  2  0  0  0  0
  4 32  1  0  0  0  0
  5  6  1  0  0  0  0
  5 19  1  0  0  0  0
  6  7  2  0  0  0  0
  7  8  1  0  0  0  0
  7 33  1  0  0  0  0
  8  9  2  0  0  0  0
  9 10  1  0  0  0  0
  9 19  1  0  0  0  0
 10 11  1  0  0  0  0
 10 34  1  0  0  0  0
 11 12  1  0  0  0  0
 11 17  2  0  0  0  0
 12 13  2  0  0  0  0
 12 35  1  0  0  0  0
 13 14  1  0  0  0  0
 13 36  1  0  0  0  0
 14 15  2  0  0  0  0
 14 37  1  0  0  0  0
 15 16  1  0  0  0  0
 15 17  1  0  0  0  0
 17 18  1  0  0  0  0
 19 20  2  0  0  0  0
 20 21  1  0  0  0  0
 20 38  1  0  0  0  0
 21 22  1  0  0  0  0
 22 23  1  0  0  0  0
 22 39  1  0  0  0  0
 22 40  1  0  0  0  0
 23 24  1  0  0  0  0
 23 25  1  0  0  0  0
 24 41  1  0  0  0  0
 24 42  1  0  0  0  0
 24 43  1  0  0  0  0
 25 26  1  0  0  0  0
 25 44  1  0  0  0  0
 25 45  1  0  0  0  0
 26 27  1  0  0  0  0
 26 28  2  0  0  0  0
 27 46  1  0  0  0  0
 27 47  1  0  0  0  0
M  END
