REMARK  Name = 
REMARK  7 active torsions:
REMARK  status: ('A' for Active; 'I' for Inactive)
REMARK    1  A    between atoms: C_4  and  C_5
REMARK    2  A    between atoms: C_9  and  C_10
REMARK    3  A    between atoms: C_14  and  C_15
REMARK    4  A    between atoms: C_18  and  O_19
REMARK    5  A    between atoms: O_19  and  C_20
REMARK    6  A    between atoms: C_20  and  C_21
REMARK    7  A    between atoms: C_21  and  N_22
REMARK                            x       y       z     vdW  Elec       q    Type
REMARK                         _______ _______ _______ _____ _____    ______ ____
ROOT
ATOM      1  C   UNL     1      -0.370  -3.397   2.246  0.00  0.00    +0.000 A 
ATOM      2  C   UNL     1      -0.551  -2.396   3.204  0.00  0.00    +0.000 A 
ATOM      3  C   UNL     1       0.236  -2.390   4.338  0.00  0.00    +0.000 A 
ATOM      4  N   UNL     1       1.195  -3.304   4.557  0.00  0.00    +0.000 NA
ATOM      5  C   UNL     1       1.378  -4.247   3.627  0.00  0.00    +0.000 A 
ATOM      6  C   UNL     1       0.623  -4.340   2.481  0.00  0.00    +0.000 A 
ENDROOT
BRANCH   1  11
ATOM      7  C   UNL     1      -1.331  -2.503   0.040  0.00  0.00    +0.000 A 
ATOM      8  N   UNL     1      -2.206  -2.975  -0.890  0.00  0.00    +0.000 N 
ATOM      9  N   UNL     1      -2.676  -4.214  -0.556  0.00  0.00    +0.000 NA
ATOM     10  C   UNL     1      -2.075  -4.505   0.587  0.00  0.00    +0.000 A 
ATOM     11  C   UNL     1      -1.226  -3.451   0.992  0.00  0.00    +0.000 A 
ATOM     12  H   UNL     1      -2.477  -2.467  -1.732  0.00  0.00    +0.000 HD
BRANCH   7  16
ATOM     13  C   UNL     1       0.677   1.216   0.007  0.00  0.00    +0.000 A 
ATOM     14  C   UNL     1       1.442   0.047  -0.003  0.00  0.00    +0.000 A 
ATOM     15  C   UNL     1       0.765  -1.166  -0.005  0.00  0.00    +0.000 A 
ATOM     16  C   UNL     1      -0.611  -1.165   0.009  0.00  0.00    +0.000 A 
ATOM     17  N   UNL     1      -1.348  -0.050  -0.003  0.00  0.00    +0.000 NA
ATOM     18  C   UNL     1      -0.701   1.126  -0.004  0.00  0.00    +0.000 A 
ENDBRANCH   7  16
ENDBRANCH   1  11
BRANCH   5  19
ATOM     19  C   UNL     1       2.480  -5.271   3.848  0.00  0.00    +0.000 A 
ATOM     20  C   UNL     1       2.433  -6.081   4.970  0.00  0.00    +0.000 A 
ATOM     21  C   UNL     1       3.639  -6.776   5.227  0.00  0.00    +0.000 A 
ATOM     22  C   UNL     1       4.601  -6.958   4.341  0.00  0.00    +0.000 A 
ATOM     23  C   UNL     1       4.553  -6.174   3.221  0.00  0.00    +0.000 A 
ATOM     24  C   UNL     1       3.468  -5.371   2.967  0.00  0.00    +0.000 A 
BRANCH  22  25
ATOM     25  O   UNL     1       5.630  -7.916   4.540  0.00  0.00    +0.000 OA
BRANCH  25  26
ATOM     26  C   UNL     1       6.646  -8.081   3.562  0.00  0.00    +0.000 C 
BRANCH  26  27
ATOM     27  C   UNL     1       6.016  -8.488   2.240  0.00  0.00    +0.000 C 
BRANCH  27  28
ATOM     28  N   UNL     1       5.079  -7.443   1.802  0.00  0.00    +0.000 N 
ATOM     29  C   UNL     1       3.853  -7.595   1.243  0.00  0.00    +0.000 A 
ATOM     30  C   UNL     1       3.399  -6.342   0.996  0.00  0.00    +0.000 A 
ATOM     31  N   UNL     1       4.323  -5.508   1.389  0.00  0.00    +0.000 NA
ATOM     32  C   UNL     1       5.323  -6.163   1.864  0.00  0.00    +0.000 A 
ENDBRANCH  27  28
ENDBRANCH  26  27
ENDBRANCH  25  26
ENDBRANCH  22  25
ENDBRANCH   5  19
TORSDOF 7
