
 OpenBabel03132512083D

 45 48  0  0  0  0  0  0  0  0999 V2000
    0.9612    0.0660    0.0643 C   0  0  0  0  0  0  0  0  0  0  0  0
    0.4878    0.8890    1.1203 O   0  0  0  0  0  0  0  0  0  0  0  0
    0.8309    0.5865    2.4646 C   0  0  0  0  0  0  0  0  0  0  0  0
   -0.1385    0.5632    3.3845 N   0  0  0  0  0  0  0  0  0  0  0  0
    0.1892    0.1760    4.6272 C   0  0  0  0  0  0  0  0  0  0  0  0
   -0.8954    0.1413    5.6915 C   0  0  0  0  0  0  0  0  0  0  0  0
   -2.0056   -0.6707    5.5224 C   0  0  0  0  0  0  0  0  0  0  0  0
   -2.9979   -0.6885    6.5189 C   0  0  0  0  0  0  0  0  0  0  0  0
   -4.2837   -1.3239    6.6502 C   0  0  0  0  0  0  0  0  0  0  0  0
   -4.9099   -2.3221    5.6901 C   0  0  0  0  0  0  0  0  0  0  0  0
   -6.0599   -2.8043    5.9356 O   0  0  0  0  0  0  0  0  0  0  0  0
   -4.2101   -2.7159    4.5190 O   0  0  0  0  0  0  0  0  0  0  0  0
   -4.8318   -0.8467    7.8184 C   0  0  0  0  0  0  0  0  0  0  0  0
   -3.9610    0.0064    8.4424 N   0  0  0  0  0  0  0  0  0  0  0  0
   -2.8376    0.1402    7.6595 C   0  0  0  0  0  0  0  0  0  0  0  0
   -1.7204    0.9606    7.8494 C   0  0  0  0  0  0  0  0  0  0  0  0
   -0.7715    0.9328    6.8468 C   0  0  0  0  0  0  0  0  0  0  0  0
    0.6380    1.9518    6.9952 Cl  0  0  0  0  0  0  0  0  0  0  0  0
    1.4737   -0.1921    4.9763 C   0  0  0  0  0  0  0  0  0  0  0  0
    2.4872   -0.1444    4.0159 C   0  0  0  0  0  0  0  0  0  0  0  0
    2.1405    0.2603    2.7330 C   0  0  0  0  0  0  0  0  0  0  0  0
    3.1592    0.3390    1.6761 N   0  0  0  0  0  0  0  0  0  0  0  0
    3.5869    1.5830    0.8594 C   0  0  0  0  0  0  0  0  0  0  0  0
    3.8232    0.9945   -0.5570 C   0  0  0  0  0  0  0  0  0  0  0  0
    4.4661   -0.3832   -0.2926 C   0  0  0  0  0  0  0  0  0  0  0  0
    5.8799   -0.3197   -0.4088 O   0  0  0  0  0  0  0  0  0  0  0  0
    4.0438   -0.7996    1.1274 C   0  0  0  0  0  0  0  0  0  0  0  0
    0.6045    0.4450   -0.8706 H   0  0  0  0  0  0  0  0  0  0  0  0
    0.6045   -0.9331    0.2035 H   0  0  0  0  0  0  0  0  0  0  0  0
    2.0312    0.0660    0.0643 H   0  0  0  0  0  0  0  0  0  0  0  0
   -2.1064   -1.2759    4.6458 H   0  0  0  0  0  0  0  0  0  0  0  0
   -4.6221   -3.3727    3.8874 H   0  0  0  0  0  0  0  0  0  0  0  0
   -5.8022   -1.1057    8.1874 H   0  0  0  0  0  0  0  0  0  0  0  0
   -4.1192    0.4664    9.3390 H   0  0  0  0  0  0  0  0  0  0  0  0
   -1.6080    1.5730    8.7195 H   0  0  0  0  0  0  0  0  0  0  0  0
    1.6908   -0.5113    5.9742 H   0  0  0  0  0  0  0  0  0  0  0  0
    3.4945   -0.4101    4.2598 H   0  0  0  0  0  0  0  0  0  0  0  0
    2.8645    2.3721    0.8769 H   0  0  0  0  0  0  0  0  0  0  0  0
    4.4838    2.0137    1.2531 H   0  0  0  0  0  0  0  0  0  0  0  0
    4.4390    1.6241   -1.1647 H   0  0  0  0  0  0  0  0  0  0  0  0
    2.8973    0.8866   -1.0823 H   0  0  0  0  0  0  0  0  0  0  0  0
    4.1145   -1.0980   -1.0070 H   0  0  0  0  0  0  0  0  0  0  0  0
    6.2390    0.3427    0.2488 H   0  0  0  0  0  0  0  0  0  0  0  0
    4.8974   -0.9602    1.7522 H   0  0  0  0  0  0  0  0  0  0  0  0
    3.4896   -1.7143    1.0944 H   0  0  0  0  0  0  0  0  0  0  0  0
  1  2  1  0  0  0  0
  1 28  1  0  0  0  0
  1 29  1  0  0  0  0
  1 30  1  0  0  0  0
  2  3  1  0  0  0  0
  3  4  1  0  0  0  0
  3 21  2  0  0  0  0
  4  5  2  0  0  0  0
  5  6  1  0  0  0  0
  5 19  1  0  0  0  0
  6  7  1  0  0  0  0
  6 17  2  0  0  0  0
  7  8  2  0  0  0  0
  7 31  1  0  0  0  0
  8  9  1  0  0  0  0
  8 15  1  0  0  0  0
  9 10  1  0  0  0  0
  9 13  2  0  0  0  0
 10 11  2  0  0  0  0
 10 12  1  0  0  0  0
 12 32  1  0  0  0  0
 13 14  1  0  0  0  0
 13 33  1  0  0  0  0
 14 15  1  0  0  0  0
 14 34  1  0  0  0  0
 15 16  2  0  0  0  0
 16 17  1  0  0  0  0
 16 35  1  0  0  0  0
 17 18  1  0  0  0  0
 19 20  2  0  0  0  0
 19 36  1  0  0  0  0
 20 21  1  0  0  0  0
 20 37  1  0  0  0  0
 21 22  1  0  0  0  0
 22 23  1  0  0  0  0
 22 27  1  0  0  0  0
 23 24  1  0  0  0  0
 23 38  1  0  0  0  0
 23 39  1  0  0  0  0
 24 25  1  0  0  0  0
 24 40  1  0  0  0  0
 24 41  1  0  0  0  0
 25 26  1  0  0  0  0
 25 27  1  0  0  0  0
 25 42  1  0  0  0  0
 26 43  1  0  0  0  0
 27 44  1  0  0  0  0
 27 45  1  0  0  0  0
M  END
