REMARK  Name = 
REMARK  7 active torsions:
REMARK  status: ('A' for Active; 'I' for Inactive)
REMARK    1  A    between atoms: C_1  and  C_2
REMARK    2  A    between atoms: C_2  and  N_3
REMARK    3  A    between atoms: C_2  and  C_26
REMARK    4  A    between atoms: C_4  and  C_6
REMARK    5  A    between atoms: C_12  and  C_13
REMARK    6  A    between atoms: N_15  and  C_16
REMARK    7  A    between atoms: C_30  and  C_31
REMARK                            x       y       z     vdW  Elec       q    Type
REMARK                         _______ _______ _______ _____ _____    ______ ____
ROOT
ATOM      1  C   UNL     1      -1.385  -0.849  -3.094  0.00  0.00    +0.000 A 
ATOM      2  C   UNL     1      -2.334  -1.837  -3.111  0.00  0.00    +0.000 A 
ATOM      3  N   UNL     1      -3.560  -1.289  -2.892  0.00  0.00    +0.000 N 
ATOM      4  C   UNL     1      -3.463   0.073  -2.702  0.00  0.00    +0.000 A 
ATOM      5  N   UNL     1      -4.349   1.036  -2.451  0.00  0.00    +0.000 NA
ATOM      6  C   UNL     1      -3.958   2.293  -2.301  0.00  0.00    +0.000 A 
ATOM      7  C   UNL     1      -2.601   2.640  -2.423  0.00  0.00    +0.000 A 
ATOM      8  N   UNL     1      -1.716   1.676  -2.670  0.00  0.00    +0.000 NA
ATOM      9  C   UNL     1      -2.101   0.411  -2.816  0.00  0.00    +0.000 A 
ATOM     10  H   UNL     1      -4.434  -1.815  -2.872  0.00  0.00    +0.000 HD
ENDROOT
BRANCH   7  11
ATOM     11  C   UNL     1      -2.154   4.086  -2.276  0.00  0.00    +0.000 A 
ATOM     12  N   UNL     1      -1.542   4.787  -3.209  0.00  0.00    +0.000 NA
ATOM     13  N   UNL     1      -1.289   6.013  -2.776  0.00  0.00    +0.000 N 
ATOM     14  C   UNL     1      -0.618   7.072  -3.544  0.00  0.00    +0.000 C 
ATOM     15  C   UNL     1      -1.746   6.128  -1.530  0.00  0.00    +0.000 A 
ATOM     16  C   UNL     1      -1.771   7.160  -0.568  0.00  0.00    +0.000 A 
ATOM     17  C   UNL     1      -2.332   6.927   0.638  0.00  0.00    +0.000 A 
ATOM     18 CL   UNL     1      -2.370   8.235   1.845  0.00  0.00    +0.000 Cl
ATOM     19  C   UNL     1      -2.868   5.719   0.953  0.00  0.00    +0.000 A 
ATOM     20  C   UNL     1      -2.877   4.695   0.070  0.00  0.00    +0.000 A 
ATOM     21  C   UNL     1      -2.314   4.867  -1.196  0.00  0.00    +0.000 A 
ENDBRANCH   7  11
BRANCH   1  23
ATOM     22  N   UNL     1       1.065  -0.341  -2.425  0.00  0.00    +0.000 N 
ATOM     23  C   UNL     1       0.109  -1.017  -3.315  0.00  0.00    +0.000 C 
ATOM     24  O   UNL     1       0.533  -1.742  -4.269  0.00  0.00    +0.000 OA
ATOM     25  H   UNL     1       2.067  -0.454  -2.573  0.00  0.00    +0.000 HD
BRANCH  22  27
ATOM     26  C   UNL     1       1.081  -0.058   0.000  0.00  0.00    +0.000 C 
ATOM     27  C   UNL     1       0.575   0.497  -1.321  0.00  0.00    +0.000 C 
BRANCH  27  28
ATOM     28  C   UNL     1      -0.945   0.497  -1.321  0.00  0.00    +0.000 C 
ATOM     29  O   UNL     1      -1.581   1.589  -1.459  0.00  0.00    +0.000 OA
ATOM     30  N   UNL     1      -1.680  -0.766  -1.161  0.00  0.00    +0.000 N 
ATOM     31  C   UNL     1      -2.854  -1.538  -1.788  0.00  0.00    +0.000 C 
ATOM     32  C   UNL     1      -3.000  -2.258  -0.438  0.00  0.00    +0.000 C 
ATOM     33  C   UNL     1      -1.510  -1.960  -0.204  0.00  0.00    +0.000 C 
BRANCH  32  34
ATOM     34  C   UNL     1      -3.563  -3.666  -0.335  0.00  0.00    +0.000 C 
ATOM     35  N   UNL     1      -4.030  -4.834  -0.250  0.00  0.00    +0.000 NA
ENDBRANCH  32  34
ENDBRANCH  27  28
ENDBRANCH  22  27
ENDBRANCH   1  23
TORSDOF 5
