
 OpenBabel03132514253D

 43 46  0  0  0  0  0  0  0  0999 V2000
    0.9602   -0.0067   -0.0915 C   0  0  0  0  0  0  0  0  0  0  0  0
    0.4869   -0.3377    1.2058 O   0  0  0  0  0  0  0  0  0  0  0  0
    0.8299   -1.5857    1.7897 C   0  0  0  0  0  0  0  0  0  0  0  0
   -0.1282   -2.2561    2.5322 C   0  0  0  0  0  0  0  0  0  0  0  0
    0.4047   -3.2281    3.4116 C   0  0  0  0  0  0  0  0  0  0  0  0
   -0.4823   -3.7191    4.5441 C   0  0  0  0  0  0  0  0  0  0  0  0
   -1.7210   -4.2753    4.2706 C   0  0  0  0  0  0  0  0  0  0  0  0
   -2.5775   -4.3482    5.3945 C   0  0  0  0  0  0  0  0  0  0  0  0
   -3.9849   -4.5362    5.1534 C   0  0  0  0  0  0  0  0  0  0  0  0
   -4.5034   -4.6491    3.7290 C   0  0  0  0  0  0  0  0  0  0  0  0
   -5.7454   -4.8150    3.5162 O   0  0  0  0  0  0  0  0  0  0  0  0
   -3.6003   -4.5692    2.6362 O   0  0  0  0  0  0  0  0  0  0  0  0
   -4.8707   -4.6145    6.2253 N   0  0  0  0  0  0  0  0  0  0  0  0
   -2.9918   -4.6402    7.7109 N   0  0  0  0  0  0  0  0  0  0  0  0
   -2.1761   -4.2558    6.6493 C   0  0  0  0  0  0  0  0  0  0  0  0
   -0.9168   -3.7626    6.8502 C   0  0  0  0  0  0  0  0  0  0  0  0
   -0.0674   -3.5419    5.7930 C   0  0  0  0  0  0  0  0  0  0  0  0
    1.6044   -3.0136    6.1003 Cl  0  0  0  0  0  0  0  0  0  0  0  0
    1.6190   -3.7383    3.3169 C   0  0  0  0  0  0  0  0  0  0  0  0
    2.4995   -3.0678    2.5140 C   0  0  0  0  0  0  0  0  0  0  0  0
    2.0816   -2.0241    1.7241 C   0  0  0  0  0  0  0  0  0  0  0  0
    3.0611   -1.3653    0.7665 C   0  0  0  0  0  0  0  0  0  0  0  0
    3.0744   -0.0306    1.2235 O   0  0  0  0  0  0  0  0  0  0  0  0
    2.8556   -1.4419   -0.7566 C   0  0  0  0  0  0  0  0  0  0  0  0
    4.3761   -1.3246   -0.9594 C   0  0  0  0  0  0  0  0  0  0  0  0
    4.5602   -1.7538    0.5014 C   0  0  0  0  0  0  0  0  0  0  0  0
    0.6035    0.9645   -0.3643 H   0  0  0  0  0  0  0  0  0  0  0  0
    0.6035   -0.7286   -0.7962 H   0  0  0  0  0  0  0  0  0  0  0  0
    2.0302   -0.0067   -0.0915 H   0  0  0  0  0  0  0  0  0  0  0  0
   -1.1761   -2.0569    2.4484 H   0  0  0  0  0  0  0  0  0  0  0  0
   -2.0045   -4.6188    3.2977 H   0  0  0  0  0  0  0  0  0  0  0  0
   -3.9414   -4.6435    1.6991 H   0  0  0  0  0  0  0  0  0  0  0  0
   -2.6539   -4.5571    8.6697 H   0  0  0  0  0  0  0  0  0  0  0  0
   -0.5881   -3.5454    7.8450 H   0  0  0  0  0  0  0  0  0  0  0  0
    1.8989   -4.6286    3.8403 H   0  0  0  0  0  0  0  0  0  0  0  0
    3.5287   -3.3600    2.5006 H   0  0  0  0  0  0  0  0  0  0  0  0
    3.6973    0.5094    0.6575 H   0  0  0  0  0  0  0  0  0  0  0  0
    2.3094   -2.2525   -1.1920 H   0  0  0  0  0  0  0  0  0  0  0  0
    2.2952   -0.6267   -1.1645 H   0  0  0  0  0  0  0  0  0  0  0  0
    4.8187   -0.4254   -1.3340 H   0  0  0  0  0  0  0  0  0  0  0  0
    4.7813   -2.0078   -1.6762 H   0  0  0  0  0  0  0  0  0  0  0  0
    5.3499   -1.3511    1.1005 H   0  0  0  0  0  0  0  0  0  0  0  0
    4.7770   -2.7934    0.6324 H   0  0  0  0  0  0  0  0  0  0  0  0
  1  2  1  0  0  0  0
  1 27  1  0  0  0  0
  1 28  1  0  0  0  0
  1 29  1  0  0  0  0
  2  3  1  0  0  0  0
  3  4  1  0  0  0  0
  3 21  2  0  0  0  0
  4  5  2  0  0  0  0
  4 30  1  0  0  0  0
  5  6  1  0  0  0  0
  5 19  1  0  0  0  0
  6  7  1  0  0  0  0
  6 17  2  0  0  0  0
  7  8  2  0  0  0  0
  7 31  1  0  0  0  0
  8  9  1  0  0  0  0
  8 15  1  0  0  0  0
  9 10  1  0  0  0  0
  9 13  2  0  0  0  0
 10 11  2  0  0  0  0
 10 12  1  0  0  0  0
 12 32  1  0  0  0  0
 13 14  1  0  0  0  0
 14 15  1  0  0  0  0
 14 33  1  0  0  0  0
 15 16  2  0  0  0  0
 16 17  1  0  0  0  0
 16 34  1  0  0  0  0
 17 18  1  0  0  0  0
 19 20  2  0  0  0  0
 19 35  1  0  0  0  0
 20 21  1  0  0  0  0
 20 36  1  0  0  0  0
 21 22  1  0  0  0  0
 22 23  1  0  0  0  0
 22 24  1  0  0  0  0
 22 26  1  0  0  0  0
 23 37  1  0  0  0  0
 24 25  1  0  0  0  0
 24 38  1  0  0  0  0
 24 39  1  0  0  0  0
 25 26  1  0  0  0  0
 25 40  1  0  0  0  0
 25 41  1  0  0  0  0
 26 42  1  0  0  0  0
 26 43  1  0  0  0  0
M  END
