
 OpenBabel03132512083D

 74 80  0  0  0  0  0  0  0  0999 V2000
    1.0806   -0.0128    0.0578 O   0  0  0  0  0  0  0  0  0  0  0  0
    2.3515   -0.0128    0.0578 C   0  0  0  0  0  0  0  0  0  0  0  0
    3.0615   -0.8865   -0.8076 O   0  0  0  0  0  0  0  0  0  0  0  0
    4.4815   -0.8865   -0.8076 C   0  0  0  0  0  0  0  0  0  0  0  0
    4.9899   -0.6440   -2.2343 C   0  0  0  0  0  0  0  0  0  0  0  0
    6.5084   -0.5198   -2.2793 C   0  0  0  0  0  0  0  0  0  0  0  0
    7.0000    0.5781   -1.3493 C   0  0  0  0  0  0  0  0  0  0  0  0
    6.4634    1.9163   -1.8306 C   0  0  0  0  0  0  0  0  0  0  0  0
    5.6295    1.8698   -2.9356 C   0  0  0  0  0  0  0  0  0  0  0  0
    5.3531    3.1379   -3.4991 C   0  0  0  0  0  0  0  0  0  0  0  0
    5.5356    4.2892   -2.8783 C   0  0  0  0  0  0  0  0  0  0  0  0
    4.9146    5.5802   -3.3862 C   0  0  0  0  0  0  0  0  0  0  0  0
    3.5574    5.7361   -3.5866 N   0  0  0  0  0  0  0  0  0  0  0  0
    3.0721    6.9269   -4.1355 C   0  0  0  0  0  0  0  0  0  0  0  0
    1.7361    7.4148   -4.4742 N   0  0  0  0  0  0  0  0  0  0  0  0
    1.8607    8.6133   -4.9646 C   0  0  0  0  0  0  0  0  0  0  0  0
    0.7843    9.4238   -5.4127 O   0  0  0  0  0  0  0  0  0  0  0  0
   -0.5480    8.9375   -5.3421 C   0  0  0  0  0  0  0  0  0  0  0  0
   -0.9605    8.6321   -4.1012 C   0  0  0  0  0  0  0  0  0  0  0  0
   -0.6890    7.2294   -3.8266 O   0  0  0  0  0  0  0  0  0  0  0  0
   -0.6002    6.5253   -5.1940 C   0  0  0  0  0  0  0  0  0  0  0  0
   -1.8588    5.7136   -5.4195 C   0  0  0  0  0  0  0  0  0  0  0  0
   -2.2971    5.1115   -4.2105 O   0  0  0  0  0  0  0  0  0  0  0  0
   -2.8007    6.5676   -5.9066 C   0  0  0  0  0  0  0  0  0  0  0  0
   -2.1639    7.6109   -6.6959 O   0  0  0  0  0  0  0  0  0  0  0  0
   -0.7066    7.7018   -6.2048 C   0  0  0  0  0  0  0  0  0  0  0  0
    3.2075    8.9879   -4.9869 N   0  0  0  0  0  0  0  0  0  0  0  0
    3.9680    7.9551   -4.4776 C   0  0  0  0  0  0  0  0  0  0  0  0
    5.3311    7.7806   -4.2677 C   0  0  0  0  0  0  0  0  0  0  0  0
    5.7983    6.6061   -3.7221 C   0  0  0  0  0  0  0  0  0  0  0  0
    7.5435    6.3948   -3.4430 Cl  0  0  0  0  0  0  0  0  0  0  0  0
    6.3133    4.2573   -1.7542 C   0  0  0  0  0  0  0  0  0  0  0  0
    6.7315    3.0634   -1.2178 C   0  0  0  0  0  0  0  0  0  0  0  0
    6.5046    0.3219    0.0684 C   0  0  0  0  0  0  0  0  0  0  0  0
    4.9874    0.2155    0.1194 C   0  0  0  0  0  0  0  0  0  0  0  0
    3.0865    0.8917    0.9537 N   0  0  0  0  0  0  0  0  0  0  0  0
    2.7404    1.0893    2.3731 C   0  0  0  0  0  0  0  0  0  0  0  0
    2.5056    2.5606    2.6324 C   0  0  0  0  0  0  0  0  0  0  0  0
    3.6548    3.3317    2.2824 O   0  0  0  0  0  0  0  0  0  0  0  0
    3.9546    3.1566    0.8975 C   0  0  0  0  0  0  0  0  0  0  0  0
    4.2626    1.7047    0.5837 C   0  0  0  0  0  0  0  0  0  0  0  0
    4.8436   -1.8318   -0.4609 H   0  0  0  0  0  0  0  0  0  0  0  0
    4.7062   -1.4821   -2.8360 H   0  0  0  0  0  0  0  0  0  0  0  0
    4.5570    0.2606   -2.6074 H   0  0  0  0  0  0  0  0  0  0  0  0
    6.7977   -0.2708   -3.2789 H   0  0  0  0  0  0  0  0  0  0  0  0
    6.9433   -1.4506   -1.9804 H   0  0  0  0  0  0  0  0  0  0  0  0
    8.0699    0.5930   -1.3533 H   0  0  0  0  0  0  0  0  0  0  0  0
    5.2306    0.9576   -3.3276 H   0  0  0  0  0  0  0  0  0  0  0  0
    4.9696    3.1661   -4.4976 H   0  0  0  0  0  0  0  0  0  0  0  0
   -1.1550    9.7453   -5.6939 H   0  0  0  0  0  0  0  0  0  0  0  0
   -0.4365    9.2400   -3.3935 H   0  0  0  0  0  0  0  0  0  0  0  0
   -2.0120    8.8133   -4.0211 H   0  0  0  0  0  0  0  0  0  0  0  0
    0.2706    5.9086   -5.2746 H   0  0  0  0  0  0  0  0  0  0  0  0
   -1.6706    4.9322   -6.1258 H   0  0  0  0  0  0  0  0  0  0  0  0
   -2.4805    5.8223   -3.5314 H   0  0  0  0  0  0  0  0  0  0  0  0
   -3.3256    7.0158   -5.0891 H   0  0  0  0  0  0  0  0  0  0  0  0
   -3.4862    6.0249   -6.5234 H   0  0  0  0  0  0  0  0  0  0  0  0
   -0.0099    7.7021   -7.0168 H   0  0  0  0  0  0  0  0  0  0  0  0
    3.5692    9.8798   -5.3247 H   0  0  0  0  0  0  0  0  0  0  0  0
    6.0170    8.5589   -4.5302 H   0  0  0  0  0  0  0  0  0  0  0  0
    6.6003    5.1753   -1.2854 H   0  0  0  0  0  0  0  0  0  0  0  0
    7.2782    3.0580   -0.2981 H   0  0  0  0  0  0  0  0  0  0  0  0
    6.8037    1.1458    0.6820 H   0  0  0  0  0  0  0  0  0  0  0  0
    6.9293   -0.5932    0.4248 H   0  0  0  0  0  0  0  0  0  0  0  0
    4.5707    1.1472   -0.2019 H   0  0  0  0  0  0  0  0  0  0  0  0
    4.6863   -0.0058    1.1220 H   0  0  0  0  0  0  0  0  0  0  0  0
    3.5435    0.7415    2.9887 H   0  0  0  0  0  0  0  0  0  0  0  0
    1.8517    0.5399    2.6037 H   0  0  0  0  0  0  0  0  0  0  0  0
    1.6816    2.8852    2.0320 H   0  0  0  0  0  0  0  0  0  0  0  0
    2.2918    2.7030    3.6711 H   0  0  0  0  0  0  0  0  0  0  0  0
    4.8157    3.7454    0.6595 H   0  0  0  0  0  0  0  0  0  0  0  0
    3.1125    3.4686    0.3157 H   0  0  0  0  0  0  0  0  0  0  0  0
    5.1219    1.3825    1.1338 H   0  0  0  0  0  0  0  0  0  0  0  0
    4.4641    1.5951   -0.4615 H   0  0  0  0  0  0  0  0  0  0  0  0
  1  2  2  0  0  0  0
  2  3  1  0  0  0  0
  2 36  1  0  0  0  0
  3  4  1  0  0  0  0
  4  5  1  0  0  0  0
  4 35  1  0  0  0  0
  4 42  1  0  0  0  0
  5  6  1  0  0  0  0
  5 43  1  0  0  0  0
  5 44  1  0  0  0  0
  6  7  1  0  0  0  0
  6 45  1  0  0  0  0
  6 46  1  0  0  0  0
  7  8  1  0  0  0  0
  7 34  1  0  0  0  0
  7 47  1  0  0  0  0
  8  9  1  0  0  0  0
  8 33  2  0  0  0  0
  9 10  2  0  0  0  0
  9 48  1  0  0  0  0
 10 11  1  0  0  0  0
 10 49  1  0  0  0  0
 11 12  1  0  0  0  0
 11 32  2  0  0  0  0
 12 13  1  0  0  0  0
 12 30  2  0  0  0  0
 13 14  2  0  0  0  0
 14 15  1  0  0  0  0
 14 28  1  0  0  0  0
 15 16  2  0  0  0  0
 16 17  1  0  0  0  0
 16 27  1  0  0  0  0
 17 18  1  0  0  0  0
 18 19  1  0  0  0  0
 18 26  1  0  0  0  0
 18 50  1  0  0  0  0
 19 20  1  0  0  0  0
 19 51  1  0  0  0  0
 19 52  1  0  0  0  0
 20 21  1  0  0  0  0
 21 22  1  0  0  0  0
 21 26  1  0  0  0  0
 21 53  1  0  0  0  0
 22 23  1  0  0  0  0
 22 24  1  0  0  0  0
 22 54  1  0  0  0  0
 23 55  1  0  0  0  0
 24 25  1  0  0  0  0
 24 56  1  0  0  0  0
 24 57  1  0  0  0  0
 25 26  1  0  0  0  0
 26 58  1  0  0  0  0
 27 28  1  0  0  0  0
 27 59  1  0  0  0  0
 28 29  2  0  0  0  0
 29 30  1  0  0  0  0
 29 60  1  0  0  0  0
 30 31  1  0  0  0  0
 32 33  1  0  0  0  0
 32 61  1  0  0  0  0
 33 62  1  0  0  0  0
 34 35  1  0  0  0  0
 34 63  1  0  0  0  0
 34 64  1  0  0  0  0
 35 65  1  0  0  0  0
 35 66  1  0  0  0  0
 36 37  1  0  0  0  0
 36 41  1  0  0  0  0
 37 38  1  0  0  0  0
 37 67  1  0  0  0  0
 37 68  1  0  0  0  0
 38 39  1  0  0  0  0
 38 69  1  0  0  0  0
 38 70  1  0  0  0  0
 39 40  1  0  0  0  0
 40 41  1  0  0  0  0
 40 71  1  0  0  0  0
 40 72  1  0  0  0  0
 41 73  1  0  0  0  0
 41 74  1  0  0  0  0
M  END
