
 OpenBabel03132512093D

 43 46  0  0  0  0  0  0  0  0999 V2000
    1.0421   -0.0565    0.0709 C   0  0  0  0  0  0  0  0  0  0  0  0
    0.5355   -0.3437    1.4749 C   0  0  0  0  0  0  0  0  0  0  0  0
    1.0254    0.6933    2.3944 N   0  0  0  0  0  0  0  0  0  0  0  0
    0.0702    1.5293    3.1356 C   0  0  0  0  0  0  0  0  0  0  0  0
    0.4938    2.4259    3.9306 O   0  0  0  0  0  0  0  0  0  0  0  0
   -1.4242    1.3215    2.9514 C   0  0  0  0  0  0  0  0  0  0  0  0
   -2.3727    2.2951    2.7782 C   0  0  0  0  0  0  0  0  0  0  0  0
   -3.5994    1.7162    2.6710 N   0  0  0  0  0  0  0  0  0  0  0  0
   -3.5029    0.3429    2.7487 C   0  0  0  0  0  0  0  0  0  0  0  0
   -4.3899   -0.6490    2.6903 N   0  0  0  0  0  0  0  0  0  0  0  0
   -4.0004   -1.9120    2.7865 C   0  0  0  0  0  0  0  0  0  0  0  0
   -2.6437   -2.2303    2.9720 C   0  0  0  0  0  0  0  0  0  0  0  0
   -2.1978   -3.6770    3.1078 C   0  0  0  0  0  0  0  0  0  0  0  0
   -2.4351   -5.1691    3.3500 C   0  0  0  0  0  0  0  0  0  0  0  0
   -2.4982   -4.6051    1.9283 C   0  0  0  0  0  0  0  0  0  0  0  0
   -1.7570   -1.2374    3.0262 N   0  0  0  0  0  0  0  0  0  0  0  0
   -2.1414    0.0325    2.9243 C   0  0  0  0  0  0  0  0  0  0  0  0
   -0.9845   -0.3437    1.4749 C   0  0  0  0  0  0  0  0  0  0  0  0
   -1.6200   -1.3878    1.8231 O   0  0  0  0  0  0  0  0  0  0  0  0
   -1.7196    0.8640    1.0723 N   0  0  0  0  0  0  0  0  0  0  0  0
   -2.9106    1.6700    1.6187 C   0  0  0  0  0  0  0  0  0  0  0  0
   -3.1313    2.1689    0.1816 C   0  0  0  0  0  0  0  0  0  0  0  0
   -3.7653    3.5189   -0.1113 C   0  0  0  0  0  0  0  0  0  0  0  0
   -4.2914    4.6389   -0.3542 N   0  0  0  0  0  0  0  0  0  0  0  0
   -1.6359    1.9043   -0.0598 C   0  0  0  0  0  0  0  0  0  0  0  0
    0.6855    0.9005   -0.2481 H   0  0  0  0  0  0  0  0  0  0  0  0
    0.6855   -0.8113   -0.5983 H   0  0  0  0  0  0  0  0  0  0  0  0
    2.1121   -0.0565    0.0709 H   0  0  0  0  0  0  0  0  0  0  0  0
    0.8921   -1.3007    1.7940 H   0  0  0  0  0  0  0  0  0  0  0  0
    2.0283    0.8328    2.5180 H   0  0  0  0  0  0  0  0  0  0  0  0
   -2.1790    3.3465    2.7343 H   0  0  0  0  0  0  0  0  0  0  0  0
   -4.4727    2.2290    2.5494 H   0  0  0  0  0  0  0  0  0  0  0  0
   -4.7250   -2.6966    2.7224 H   0  0  0  0  0  0  0  0  0  0  0  0
   -1.5938   -3.0872    3.7652 H   0  0  0  0  0  0  0  0  0  0  0  0
   -1.8881   -5.9542    3.8288 H   0  0  0  0  0  0  0  0  0  0  0  0
   -3.3304   -5.4964    3.8359 H   0  0  0  0  0  0  0  0  0  0  0  0
   -3.2223   -4.6177    1.1406 H   0  0  0  0  0  0  0  0  0  0  0  0
   -1.7282   -4.8417    1.2240 H   0  0  0  0  0  0  0  0  0  0  0  0
   -3.6934    1.2103    2.1850 H   0  0  0  0  0  0  0  0  0  0  0  0
   -2.6500    2.4328    2.3224 H   0  0  0  0  0  0  0  0  0  0  0  0
   -3.7926    1.5657   -0.4047 H   0  0  0  0  0  0  0  0  0  0  0  0
   -0.9125    2.6927   -0.0528 H   0  0  0  0  0  0  0  0  0  0  0  0
   -1.4021    1.5008   -1.0228 H   0  0  0  0  0  0  0  0  0  0  0  0
  1  2  1  0  0  0  0
  1 26  1  0  0  0  0
  1 27  1  0  0  0  0
  1 28  1  0  0  0  0
  2  3  1  0  0  0  0
  2 18  1  0  0  0  0
  2 29  1  0  0  0  0
  3  4  1  0  0  0  0
  3 30  1  0  0  0  0
  4  5  2  0  0  0  0
  4  6  1  0  0  0  0
  6  7  2  0  0  0  0
  6 17  1  0  0  0  0
  7  8  1  0  0  0  0
  7 31  1  0  0  0  0
  8  9  1  0  0  0  0
  8 32  1  0  0  0  0
  9 10  1  0  0  0  0
  9 17  2  0  0  0  0
 10 11  2  0  0  0  0
 11 12  1  0  0  0  0
 11 33  1  0  0  0  0
 12 13  1  0  0  0  0
 12 16  2  0  0  0  0
 13 14  1  0  0  0  0
 13 15  1  0  0  0  0
 13 34  1  0  0  0  0
 14 15  1  0  0  0  0
 14 35  1  0  0  0  0
 14 36  1  0  0  0  0
 15 37  1  0  0  0  0
 15 38  1  0  0  0  0
 16 17  1  0  0  0  0
 18 19  2  0  0  0  0
 18 20  1  0  0  0  0
 20 21  1  0  0  0  0
 20 25  1  0  0  0  0
 21 22  1  0  0  0  0
 21 39  1  0  0  0  0
 21 40  1  0  0  0  0
 22 23  1  0  0  0  0
 22 25  1  0  0  0  0
 22 41  1  0  0  0  0
 23 24  3  0  0  0  0
 25 42  1  0  0  0  0
 25 43  1  0  0  0  0
M  END
