REMARK  Name = 
REMARK  4 active torsions:
REMARK  status: ('A' for Active; 'I' for Inactive)
REMARK    1  A    between atoms: C_1  and  C_2
REMARK    2  A    between atoms: C_2  and  C_3
REMARK    3  A    between atoms: C_11  and  C_12
REMARK    4  A    between atoms: N_17  and  C_18
REMARK                            x       y       z     vdW  Elec       q    Type
REMARK                         _______ _______ _______ _____ _____    ______ ____
ROOT
ATOM      1  C   UNL     1       0.980   1.104  -2.251  0.00  0.00    +0.000 A 
ATOM      2  N   UNL     1       1.261   2.171  -2.985  0.00  0.00    +0.000 NA
ATOM      3  N   UNL     1       1.678   1.766  -4.184  0.00  0.00    +0.000 N 
ATOM      4  N   UNL     1       2.108   2.413  -5.361  0.00  0.00    +0.000 NA
ATOM      5  C   UNL     1       2.473   1.672  -6.429  0.00  0.00    +0.000 A 
ATOM      6  C   UNL     1       2.429   0.314  -6.401  0.00  0.00    +0.000 A 
ATOM      7  C   UNL     1       2.030  -0.361  -5.300  0.00  0.00    +0.000 A 
ATOM      8  C   UNL     1       1.641   0.344  -4.159  0.00  0.00    +0.000 A 
ATOM      9  C   UNL     1       1.200   0.001  -2.938  0.00  0.00    +0.000 A 
ENDROOT
BRANCH   9  10
ATOM     10  C   UNL     1       0.991  -1.417  -2.433  0.00  0.00    +0.000 A 
ATOM     11  C   UNL     1      -0.265  -1.904  -2.088  0.00  0.00    +0.000 A 
ATOM     12  C   UNL     1      -0.458  -3.298  -2.213  0.00  0.00    +0.000 A 
ATOM     13  N   UNL     1       0.640  -4.103  -1.915  0.00  0.00    +0.000 NA
ATOM     14  C   UNL     1       1.843  -3.576  -2.004  0.00  0.00    +0.000 A 
ATOM     15  N   UNL     1       3.021  -4.399  -1.692  0.00  0.00    +0.000 N 
ATOM     16  N   UNL     1       2.014  -2.243  -2.393  0.00  0.00    +0.000 NA
ATOM     17  H   UNL     1       3.956  -3.997  -1.760  0.00  0.00    +0.000 HD
BRANCH  15  18
ATOM     18  C   UNL     1       2.851  -5.800  -1.282  0.00  0.00    +0.000 C 
ATOM     19  C   UNL     1       1.396  -6.189  -1.010  0.00  0.00    +0.000 C 
ATOM     20  C   UNL     1       2.196  -6.924  -2.089  0.00  0.00    +0.000 C 
ENDBRANCH  15  18
ENDBRANCH   9  10
BRANCH   1  22
ATOM     21  C   UNL     1       0.980  -0.073  -0.066  0.00  0.00    +0.000 C 
ATOM     22  C   UNL     1       0.474   1.147  -0.819  0.00  0.00    +0.000 C 
ENDBRANCH   1  22
TORSDOF 3
