
 OpenBabel03132512093D

 62 66  0  0  0  0  0  0  0  0999 V2000
    0.9711    0.0785    0.0548 C   0  0  0  0  0  0  0  0  0  0  0  0
    0.4645    1.3362   -0.6321 C   0  0  0  0  0  0  0  0  0  0  0  0
   -0.3524    1.3330   -1.7450 N   0  0  0  0  0  0  0  0  0  0  0  0
   -0.6502    2.4619   -2.3689 C   0  0  0  0  0  0  0  0  0  0  0  0
   -1.5472    2.4170   -3.5952 C   0  0  0  0  0  0  0  0  0  0  0  0
   -0.1863    3.6278   -1.9512 C   0  0  0  0  0  0  0  0  0  0  0  0
   -0.5628    4.8971   -2.6978 C   0  0  0  0  0  0  0  0  0  0  0  0
   -0.1151    4.8059   -4.0423 O   0  0  0  0  0  0  0  0  0  0  0  0
    1.2676    4.6415   -4.3207 C   0  0  0  0  0  0  0  0  0  0  0  0
    1.8757    5.3894   -5.3090 C   0  0  0  0  0  0  0  0  0  0  0  0
    3.1639    5.2400   -5.5745 C   0  0  0  0  0  0  0  0  0  0  0  0
    3.9142    4.3806   -4.9055 C   0  0  0  0  0  0  0  0  0  0  0  0
    3.3719    3.5994   -3.9034 C   0  0  0  0  0  0  0  0  0  0  0  0
    2.0235    3.7258   -3.6030 C   0  0  0  0  0  0  0  0  0  0  0  0
    4.1959    2.6658   -3.1799 C   0  0  0  0  0  0  0  0  0  0  0  0
    3.6211    1.8559   -2.1369 C   0  0  0  0  0  0  0  0  0  0  0  0
    5.2670    4.2616   -5.2150 N   0  0  0  0  0  0  0  0  0  0  0  0
    6.1089    3.3091   -4.4768 C   0  0  0  0  0  0  0  0  0  0  0  0
    5.6023    2.5941   -3.5563 O   0  0  0  0  0  0  0  0  0  0  0  0
    7.5852    3.1793   -4.8145 C   0  0  0  0  0  0  0  0  0  0  0  0
    8.1672    1.9335   -4.9370 C   0  0  0  0  0  0  0  0  0  0  0  0
    9.4526    1.8130   -5.2298 C   0  0  0  0  0  0  0  0  0  0  0  0
   10.2219    2.8716   -5.4209 C   0  0  0  0  0  0  0  0  0  0  0  0
   11.9421    2.6482   -5.8204 Cl  0  0  0  0  0  0  0  0  0  0  0  0
    9.7062    4.1488   -5.3141 C   0  0  0  0  0  0  0  0  0  0  0  0
    8.3643    4.3118   -5.0025 C   0  0  0  0  0  0  0  0  0  0  0  0
    4.4908    0.8705   -1.3732 C   0  0  0  0  0  0  0  0  0  0  0  0
    5.0797   -0.1420   -2.3419 C   0  0  0  0  0  0  0  0  0  0  0  0
    5.9236    0.5806   -3.3792 C   0  0  0  0  0  0  0  0  0  0  0  0
    6.5125   -0.4319   -4.3479 C   0  0  0  0  0  0  0  0  0  0  0  0
    6.2415   -0.3577   -5.5873 O   0  0  0  0  0  0  0  0  0  0  0  0
    7.3654   -1.4608   -3.8680 O   0  0  0  0  0  0  0  0  0  0  0  0
    5.6723    2.5351   -3.5170 C   0  0  0  0  0  0  0  0  0  0  0  0
    0.6366    3.7055   -0.8442 N   0  0  0  0  0  0  0  0  0  0  0  0
    0.9740    2.5411   -0.1698 C   0  0  0  0  0  0  0  0  0  0  0  0
    1.8817    2.5843    1.0485 C   0  0  0  0  0  0  0  0  0  0  0  0
    0.6145   -0.7829   -0.4702 H   0  0  0  0  0  0  0  0  0  0  0  0
    0.6145    0.0546    1.0633 H   0  0  0  0  0  0  0  0  0  0  0  0
    2.0411    0.0785    0.0548 H   0  0  0  0  0  0  0  0  0  0  0  0
   -1.0915    1.8087   -4.3484 H   0  0  0  0  0  0  0  0  0  0  0  0
   -2.4965    2.0021   -3.3277 H   0  0  0  0  0  0  0  0  0  0  0  0
   -1.6850    3.4087   -3.9728 H   0  0  0  0  0  0  0  0  0  0  0  0
   -1.6259    5.0174   -2.6833 H   0  0  0  0  0  0  0  0  0  0  0  0
   -0.1020    5.7391   -2.2249 H   0  0  0  0  0  0  0  0  0  0  0  0
    1.2993    6.0977   -5.8666 H   0  0  0  0  0  0  0  0  0  0  0  0
    3.6090    5.8288   -6.3491 H   0  0  0  0  0  0  0  0  0  0  0  0
    1.5763    3.1302   -2.8347 H   0  0  0  0  0  0  0  0  0  0  0  0
    7.5728    1.0554   -4.7936 H   0  0  0  0  0  0  0  0  0  0  0  0
    9.8794    0.8354   -5.3138 H   0  0  0  0  0  0  0  0  0  0  0  0
   10.3338    5.0013   -5.4697 H   0  0  0  0  0  0  0  0  0  0  0  0
    7.9394    5.2894   -4.9091 H   0  0  0  0  0  0  0  0  0  0  0  0
    5.2825    1.3984   -0.8840 H   0  0  0  0  0  0  0  0  0  0  0  0
    3.8966    0.3619   -0.6431 H   0  0  0  0  0  0  0  0  0  0  0  0
    5.6919   -0.8356   -1.8044 H   0  0  0  0  0  0  0  0  0  0  0  0
    4.2879   -0.6698   -2.8312 H   0  0  0  0  0  0  0  0  0  0  0  0
    5.3114    1.2742   -3.9168 H   0  0  0  0  0  0  0  0  0  0  0  0
    7.7529   -2.1270   -4.5053 H   0  0  0  0  0  0  0  0  0  0  0  0
    5.8805    1.5316   -3.8245 H   0  0  0  0  0  0  0  0  0  0  0  0
    5.9180    3.2096   -4.3106 H   0  0  0  0  0  0  0  0  0  0  0  0
    2.8290    2.9986    0.7730 H   0  0  0  0  0  0  0  0  0  0  0  0
    1.4333    3.1925    1.8061 H   0  0  0  0  0  0  0  0  0  0  0  0
    2.0220    1.5923    1.4242 H   0  0  0  0  0  0  0  0  0  0  0  0
  1  2  1  0  0  0  0
  1 37  1  0  0  0  0
  1 38  1  0  0  0  0
  1 39  1  0  0  0  0
  2  3  1  0  0  0  0
  2 35  2  0  0  0  0
  3  4  2  0  0  0  0
  4  5  1  0  0  0  0
  4  6  1  0  0  0  0
  5 40  1  0  0  0  0
  5 41  1  0  0  0  0
  5 42  1  0  0  0  0
  6  7  1  0  0  0  0
  6 34  2  0  0  0  0
  7  8  1  0  0  0  0
  7 43  1  0  0  0  0
  7 44  1  0  0  0  0
  8  9  1  0  0  0  0
  9 10  1  0  0  0  0
  9 14  2  0  0  0  0
 10 11  2  0  0  0  0
 10 45  1  0  0  0  0
 11 12  1  0  0  0  0
 11 46  1  0  0  0  0
 12 13  2  0  0  0  0
 12 17  1  0  0  0  0
 13 14  1  0  0  0  0
 13 15  1  0  0  0  0
 14 47  1  0  0  0  0
 15 16  2  0  0  0  0
 15 33  1  0  0  0  0
 16 17  1  0  0  0  0
 16 27  1  0  0  0  0
 17 18  1  0  0  0  0
 18 19  2  0  0  0  0
 18 20  1  0  0  0  0
 20 21  1  0  0  0  0
 20 26  2  0  0  0  0
 21 22  2  0  0  0  0
 21 48  1  0  0  0  0
 22 23  1  0  0  0  0
 22 49  1  0  0  0  0
 23 24  1  0  0  0  0
 23 25  2  0  0  0  0
 25 26  1  0  0  0  0
 25 50  1  0  0  0  0
 26 51  1  0  0  0  0
 27 28  1  0  0  0  0
 27 52  1  0  0  0  0
 27 53  1  0  0  0  0
 28 29  1  0  0  0  0
 28 54  1  0  0  0  0
 28 55  1  0  0  0  0
 29 30  1  0  0  0  0
 29 33  1  0  0  0  0
 29 56  1  0  0  0  0
 30 31  2  0  0  0  0
 30 32  1  0  0  0  0
 32 57  1  0  0  0  0
 33 58  1  0  0  0  0
 33 59  1  0  0  0  0
 34 35  1  0  0  0  0
 35 36  1  0  0  0  0
 36 60  1  0  0  0  0
 36 61  1  0  0  0  0
 36 62  1  0  0  0  0
M  END
