REMARK  Name = 
REMARK  7 active torsions:
REMARK  status: ('A' for Active; 'I' for Inactive)
REMARK    1  A    between atoms: C_2  and  C_3
REMARK    2  A    between atoms: C_8  and  C_9
REMARK    3  A    between atoms: C_9  and  O_11
REMARK    4  A    between atoms: C_14  and  C_15
REMARK    5  A    between atoms: C_18  and  C_19
REMARK    6  A    between atoms: C_19  and  C_20
REMARK    7  A    between atoms: C_20  and  O_21
REMARK                            x       y       z     vdW  Elec       q    Type
REMARK                         _______ _______ _______ _____ _____    ______ ____
ROOT
ATOM      1  C   UNL     1       3.725   0.074   0.038  0.00  0.00    +0.000 A 
ATOM      2  C   UNL     1       4.408  -1.122   0.038  0.00  0.00    +0.000 A 
ATOM      3  C   UNL     1       5.798  -1.127   0.049  0.00  0.00    +0.000 A 
ATOM      4  N   UNL     1       6.747  -2.130   0.057  0.00  0.00    +0.000 N 
ATOM      5  C   UNL     1       8.019  -1.551   0.067  0.00  0.00    +0.000 A 
ATOM      6  C   UNL     1       7.922  -0.254   0.067  0.00  0.00    +0.000 A 
ATOM      7  C   UNL     1       6.501   0.090   0.055  0.00  0.00    +0.000 A 
ATOM      8  C   UNL     1       5.798   1.299   0.050  0.00  0.00    +0.000 A 
ATOM      9  C   UNL     1       4.417   1.285   0.038  0.00  0.00    +0.000 A 
ATOM     10  H   UNL     1       6.551  -3.131   0.056  0.00  0.00    +0.000 HD
ENDROOT
BRANCH   9  11
ATOM     11  C   UNL     1       3.648   2.596   0.025  0.00  0.00    +0.000 A 
ATOM     12  C   UNL     1       2.747   2.903   1.082  0.00  0.00    +0.000 A 
ATOM     13  C   UNL     1       1.831   3.956   0.923  0.00  0.00    +0.000 A 
ATOM     14  C   UNL     1       1.981   4.808  -0.048  0.00  0.00    +0.000 A 
ATOM     15  C   UNL     1       3.062   4.683  -0.931  0.00  0.00    +0.000 A 
ATOM     16  C   UNL     1       3.801   3.476  -0.966  0.00  0.00    +0.000 A 
BRANCH  14  17
ATOM     17  C   UNL     1       0.982   5.939  -0.226  0.00  0.00    +0.000 C 
ATOM     18  C   UNL     1       0.886   7.367  -0.769  0.00  0.00    +0.000 C 
ATOM     19  C   UNL     1       0.088   6.241  -1.431  0.00  0.00    +0.000 C 
BRANCH  17  20
ATOM     20  C   UNL     1       0.967   5.404   1.196  0.00  0.00    +0.000 C 
BRANCH  20  21
ATOM     21  O   UNL     1       0.621   4.027   1.180  0.00  0.00    +0.000 OA
ATOM     22  H   UNL     1      -0.285   3.915   0.772  0.00  0.00    +0.000 HD
ENDBRANCH  20  21
ENDBRANCH  17  20
ENDBRANCH  14  17
ENDBRANCH   9  11
BRANCH   1  24
ATOM     23  N   UNL     1       0.944   0.074   0.038  0.00  0.00    +0.000 NA
ATOM     24  C   UNL     1       2.205   0.074   0.038  0.00  0.00    +0.000 C 
ENDBRANCH   1  24
BRANCH   6  25
ATOM     25  C   UNL     1       9.081   0.730   0.076  0.00  0.00    +0.000 C 
ATOM     26  O   UNL     1      10.277   0.302   0.085  0.00  0.00    +0.000 OA
BRANCH  25  27
ATOM     27  O   UNL     1       8.826   2.127   0.074  0.00  0.00    +0.000 OA
ATOM     28  H   UNL     1       9.588   2.774   0.080  0.00  0.00    +0.000 HD
ENDBRANCH  25  27
ENDBRANCH   6  25
TORSDOF 7
