
 OpenBabel03132514253D

 51 53  0  0  0  0  0  0  0  0999 V2000
    1.0262   -0.0959   -0.0109 C   0  0  0  0  0  0  0  0  0  0  0  0
    0.5528    0.1510   -1.3267 O   0  0  0  0  0  0  0  0  0  0  0  0
    0.8959    1.3590   -1.9897 C   0  0  0  0  0  0  0  0  0  0  0  0
   -0.0842    1.9251   -2.7564 C   0  0  0  0  0  0  0  0  0  0  0  0
    0.1973    3.0659   -3.5410 C   0  0  0  0  0  0  0  0  0  0  0  0
   -0.7999    3.6457   -4.2832 N   0  0  0  0  0  0  0  0  0  0  0  0
   -0.4683    4.6938   -4.9858 C   0  0  0  0  0  0  0  0  0  0  0  0
    0.7718    5.2664   -5.0725 N   0  0  0  0  0  0  0  0  0  0  0  0
    1.7379    4.7140   -4.3793 C   0  0  0  0  0  0  0  0  0  0  0  0
    3.0915    5.2813   -4.4631 N   0  0  0  0  0  0  0  0  0  0  0  0
    3.3464    6.4516   -5.3154 C   0  0  0  0  0  0  0  0  0  0  0  0
    4.3671    6.3803   -6.2409 C   0  0  0  0  0  0  0  0  0  0  0  0
    4.7500    7.4955   -6.9750 C   0  0  0  0  0  0  0  0  0  0  0  0
    4.0855    8.7029   -6.7663 C   0  0  0  0  0  0  0  0  0  0  0  0
    3.0626    8.7724   -5.8395 C   0  0  0  0  0  0  0  0  0  0  0  0
    2.2030   10.2553   -5.6028 Cl  0  0  0  0  0  0  0  0  0  0  0  0
    2.7090    7.6506   -5.1244 C   0  0  0  0  0  0  0  0  0  0  0  0
    1.6950    7.7238   -4.2381 F   0  0  0  0  0  0  0  0  0  0  0  0
    1.5135    3.5801   -3.5476 C   0  0  0  0  0  0  0  0  0  0  0  0
    2.5133    2.9683   -2.7577 C   0  0  0  0  0  0  0  0  0  0  0  0
    2.2029    1.8827   -1.9894 C   0  0  0  0  0  0  0  0  0  0  0  0
    3.2755    1.2355   -1.1285 C   0  0  0  0  0  0  0  0  0  0  0  0
    4.3740    0.7658   -1.9851 N   0  0  0  0  0  0  0  0  0  0  0  0
    5.4113    0.1399   -1.1525 C   0  0  0  0  0  0  0  0  0  0  0  0
    3.8583   -0.2183   -2.9476 C   0  0  0  0  0  0  0  0  0  0  0  0
    3.2619   -1.3974   -2.1964 C   0  0  0  0  0  0  0  0  0  0  0  0
    2.2008   -0.9437   -1.3690 O   0  0  0  0  0  0  0  0  0  0  0  0
    2.7858    0.4289   -3.8085 C   0  0  0  0  0  0  0  0  0  0  0  0
    2.9585    0.5020   -5.2665 N   0  0  0  0  0  0  0  0  0  0  0  0
    1.7396    0.9068   -3.2678 O   0  0  0  0  0  0  0  0  0  0  0  0
    0.6695   -1.0476    0.3237 H   0  0  0  0  0  0  0  0  0  0  0  0
    0.6695    0.6697    0.6460 H   0  0  0  0  0  0  0  0  0  0  0  0
    2.0962   -0.0959   -0.0109 H   0  0  0  0  0  0  0  0  0  0  0  0
   -1.0675    1.5031   -2.7623 H   0  0  0  0  0  0  0  0  0  0  0  0
   -1.2487    5.1547   -5.5546 H   0  0  0  0  0  0  0  0  0  0  0  0
    3.8537    4.8629   -3.9300 H   0  0  0  0  0  0  0  0  0  0  0  0
    4.8724    5.4500   -6.3958 H   0  0  0  0  0  0  0  0  0  0  0  0
    5.5433    7.4287   -7.6900 H   0  0  0  0  0  0  0  0  0  0  0  0
    4.3665    9.5731   -7.3219 H   0  0  0  0  0  0  0  0  0  0  0  0
    3.5110    3.3549   -2.7616 H   0  0  0  0  0  0  0  0  0  0  0  0
    3.6508    1.9518   -0.4279 H   0  0  0  0  0  0  0  0  0  0  0  0
    2.8556    0.4055   -0.5997 H   0  0  0  0  0  0  0  0  0  0  0  0
    4.9914   -0.6902   -0.6236 H   0  0  0  0  0  0  0  0  0  0  0  0
    6.2108   -0.2020   -1.7759 H   0  0  0  0  0  0  0  0  0  0  0  0
    5.7866    0.8562   -0.4518 H   0  0  0  0  0  0  0  0  0  0  0  0
    4.6579   -0.5602   -3.5711 H   0  0  0  0  0  0  0  0  0  0  0  0
    2.8866   -2.1138   -2.8970 H   0  0  0  0  0  0  0  0  0  0  0  0
    4.0169   -1.8530   -1.5903 H   0  0  0  0  0  0  0  0  0  0  0  0
    2.5516   -0.2742   -0.7142 H   0  0  0  0  0  0  0  0  0  0  0  0
    2.2388    0.9363   -5.8442 H   0  0  0  0  0  0  0  0  0  0  0  0
    3.7982    0.1184   -5.7004 H   0  0  0  0  0  0  0  0  0  0  0  0
  1  2  1  0  0  0  0
  1 31  1  0  0  0  0
  1 32  1  0  0  0  0
  1 33  1  0  0  0  0
  2  3  1  0  0  0  0
  3  4  1  0  0  0  0
  3 21  2  0  0  0  0
  4  5  2  0  0  0  0
  4 34  1  0  0  0  0
  5  6  1  0  0  0  0
  5 19  1  0  0  0  0
  6  7  2  0  0  0  0
  7  8  1  0  0  0  0
  7 35  1  0  0  0  0
  8  9  2  0  0  0  0
  9 10  1  0  0  0  0
  9 19  1  0  0  0  0
 10 11  1  0  0  0  0
 10 36  1  0  0  0  0
 11 12  1  0  0  0  0
 11 17  2  0  0  0  0
 12 13  2  0  0  0  0
 12 37  1  0  0  0  0
 13 14  1  0  0  0  0
 13 38  1  0  0  0  0
 14 15  2  0  0  0  0
 14 39  1  0  0  0  0
 15 16  1  0  0  0  0
 15 17  1  0  0  0  0
 17 18  1  0  0  0  0
 19 20  2  0  0  0  0
 20 21  1  0  0  0  0
 20 40  1  0  0  0  0
 21 22  1  0  0  0  0
 22 23  1  0  0  0  0
 22 41  1  0  0  0  0
 22 42  1  0  0  0  0
 23 24  1  0  0  0  0
 23 25  1  0  0  0  0
 24 43  1  0  0  0  0
 24 44  1  0  0  0  0
 24 45  1  0  0  0  0
 25 26  1  0  0  0  0
 25 28  1  0  0  0  0
 25 46  1  0  0  0  0
 26 27  1  0  0  0  0
 26 47  1  0  0  0  0
 26 48  1  0  0  0  0
 27 49  1  0  0  0  0
 28 29  1  0  0  0  0
 28 30  2  0  0  0  0
 29 50  1  0  0  0  0
 29 51  1  0  0  0  0
M  END
