REMARK  Name = 
REMARK  7 active torsions:
REMARK  status: ('A' for Active; 'I' for Inactive)
REMARK    1  A    between atoms: C_2  and  C_13
REMARK    2  A    between atoms: N_3  and  CA_4
REMARK    3  A    between atoms: CA_4  and  C_5
REMARK    4  A    between atoms: CA_4  and  C_7
REMARK    5  A    between atoms: C_5  and  O_6
REMARK    6  A    between atoms: N_19  and  C_20
REMARK    7  A    between atoms: C_23  and  O_24
REMARK                            x       y       z     vdW  Elec       q    Type
REMARK                         _______ _______ _______ _____ _____    ______ ____
ROOT
ATOM      1  C   UNL     1       3.038  -1.384  -0.300  0.00  0.00    +0.000 A 
ATOM      2  C   UNL     1       4.110  -1.709   0.514  0.00  0.00    +0.000 A 
ATOM      3  C   UNL     1       4.921  -2.752   0.005  0.00  0.00    +0.000 A 
ATOM      4  C   UNL     1       4.548  -3.598  -0.938  0.00  0.00    +0.000 A 
ATOM      5  N   UNL     1       5.245  -4.779  -1.181  0.00  0.00    +0.000 NA
ATOM      6  C   UNL     1       4.819  -5.644  -2.186  0.00  0.00    +0.000 A 
ATOM      7  N   UNL     1       3.633  -5.312  -2.988  0.00  0.00    +0.000 N 
ATOM      8  C   UNL     1       5.580  -6.933  -2.451  0.00  0.00    +0.000 A 
ATOM      9  N   UNL     1       6.013  -7.776  -1.554  0.00  0.00    +0.000 NA
ATOM     10  C   UNL     1       6.657  -8.771  -2.212  0.00  0.00    +0.000 A 
ATOM     11  C   UNL     1       6.565  -8.467  -3.530  0.00  0.00    +0.000 A 
ATOM     12  N   UNL     1       5.904  -7.346  -3.625  0.00  0.00    +0.000 N 
ATOM     13  C   UNL     1       3.441  -3.252  -1.662  0.00  0.00    +0.000 A 
ATOM     14  C   UNL     1       2.672  -2.171  -1.305  0.00  0.00    +0.000 A 
ATOM     15  H   UNL     1       3.123  -4.447  -2.810  0.00  0.00    +0.000 HD
ENDROOT
BRANCH   7  16
ATOM     16  C   UNL     1       3.183  -6.226  -4.048  0.00  0.00    +0.000 C 
ATOM     17  C   UNL     1       1.761  -5.774  -4.347  0.00  0.00    +0.000 C 
ATOM     18  C   UNL     1       0.843  -5.923  -3.135  0.00  0.00    +0.000 C 
ATOM     19  C   UNL     1       0.873  -7.384  -2.682  0.00  0.00    +0.000 C 
ATOM     20  C   UNL     1       2.284  -7.823  -2.363  0.00  0.00    +0.000 C 
ATOM     21  C   UNL     1       3.225  -7.653  -3.545  0.00  0.00    +0.000 C 
BRANCH  19  22
ATOM     22  O   UNL     1       0.108  -7.622  -1.497  0.00  0.00    +0.000 OA
ATOM     23  H   UNL     1       0.503  -7.107  -0.736  0.00  0.00    +0.000 HD
ENDBRANCH  19  22
ENDBRANCH   7  16
BRANCH   1  25
ATOM     24  O   UNL     1       1.007  -0.099  -0.013  0.00  0.00    +0.000 OA
ATOM     25  C   UNL     1       2.278  -0.099  -0.013  0.00  0.00    +0.000 C 
ATOM     26  N   UNL     1       3.013   1.144   0.263  0.00  0.00    +0.000 N 
ATOM     27  H   UNL     1       2.503   2.006   0.455  0.00  0.00    +0.000 HD
BRANCH  26  28
ATOM     28  CA  UNL     1       4.483   1.144   0.263  0.00  0.00    +0.000 C 
BRANCH  28  29
ATOM     29  C   UNL     1       4.989   1.573   1.630  0.00  0.00    +0.000 A 
ATOM     30  C   UNL     1       5.366   0.619   2.560  0.00  0.00    +0.000 A 
ATOM     31  C   UNL     1       5.435   1.106   3.887  0.00  0.00    +0.000 A 
ATOM     32  C   UNL     1       5.503   2.384   4.212  0.00  0.00    +0.000 A 
ATOM     33  C   UNL     1       5.185   3.280   3.229  0.00  0.00    +0.000 A 
ATOM     34  C   UNL     1       4.976   2.865   1.937  0.00  0.00    +0.000 A 
ENDBRANCH  28  29
BRANCH  28  35
ATOM     35  C   UNL     1       4.989   2.113  -0.793  0.00  0.00    +0.000 C 
BRANCH  35  36
ATOM     36  O   UNL     1       4.516   3.420  -0.502  0.00  0.00    +0.000 OA
ATOM     37  H   UNL     1       3.516   3.420  -0.502  0.00  0.00    +0.000 HD
ENDBRANCH  35  36
ENDBRANCH  28  35
ENDBRANCH  26  28
ENDBRANCH   1  25
TORSDOF 7
