REMARK  Name = 
REMARK  2 active torsions:
REMARK  status: ('A' for Active; 'I' for Inactive)
REMARK    1  A    between atoms: C_6  and  N_7
REMARK    2  A    between atoms: C_11  and  C_12
REMARK                            x       y       z     vdW  Elec       q    Type
REMARK                         _______ _______ _______ _____ _____    ______ ____
ROOT
ATOM      1  N   UNL     1       2.446   2.484  -0.009  0.00  0.00    +0.000 N 
ATOM      2  N   UNL     1       2.352   3.398   0.890  0.00  0.00    +0.000 NA
ATOM      3  N   UNL     1       3.139   4.394   0.587  0.00  0.00    +0.000 NA
ATOM      4  C   UNL     1       3.752   4.085  -0.581  0.00  0.00    +0.000 A 
ATOM      5  C   UNL     1       3.291   2.859  -0.930  0.00  0.00    +0.000 A 
ENDROOT
BRANCH   1  11
ATOM      6 CL   UNL     1      -2.082   0.001   0.005  0.00  0.00    +0.000 Cl
ATOM      7  C   UNL     1      -0.345  -0.007   0.003  0.00  0.00    +0.000 A 
ATOM      8  C   UNL     1       0.329  -1.219  -0.019  0.00  0.00    +0.000 A 
ATOM      9  C   UNL     1       1.723  -1.199   0.002  0.00  0.00    +0.000 A 
ATOM     10  C   UNL     1       2.407   0.006   0.017  0.00  0.00    +0.000 A 
ATOM     11  C   UNL     1       1.712   1.210  -0.002  0.00  0.00    +0.000 A 
ATOM     12  C   UNL     1       0.321   1.207  -0.014  0.00  0.00    +0.000 A 
ENDBRANCH   1  11
BRANCH   5  13
ATOM     13  C   UNL     1       3.685   2.068  -2.167  0.00  0.00    +0.000 A 
ATOM     14  C   UNL     1       5.024   1.715  -2.349  0.00  0.00    +0.000 A 
ATOM     15  C   UNL     1       5.366   0.845  -3.365  0.00  0.00    +0.000 A 
ATOM     16  N   UNL     1       4.459   0.331  -4.210  0.00  0.00    +0.000 NA
ATOM     17  C   UNL     1       3.182   0.689  -4.045  0.00  0.00    +0.000 A 
ATOM     18  C   UNL     1       2.752   1.530  -3.045  0.00  0.00    +0.000 A 
ENDBRANCH   5  13
TORSDOF 2
