REMARK  Name = 
REMARK  10 active torsions:
REMARK  status: ('A' for Active; 'I' for Inactive)
REMARK    1  A    between atoms: C_1  and  C_2
REMARK    2  A    between atoms: C_2  and  N_3
REMARK    3  A    between atoms: N_3  and  S_4
REMARK    4  A    between atoms: S_4  and  C_5
REMARK    5  A    between atoms: N_7  and  C_8
REMARK    6  A    between atoms: C_11  and  C_12
REMARK    7  A    between atoms: C_15  and  C_16
REMARK    8  A    between atoms: C_20  and  O_21
REMARK    9  A    between atoms: O_21  and  C_22
REMARK   10  A    between atoms: C_26  and  O_27
REMARK                            x       y       z     vdW  Elec       q    Type
REMARK                         _______ _______ _______ _____ _____    ______ ____
ROOT
ATOM      1  C   UNL     1      -6.569  -0.127  12.283  0.00  0.00    +0.000 A 
ATOM      2  N   UNL     1      -5.956  -0.706  13.376  0.00  0.00    +0.000 NA
ATOM      3  C   UNL     1      -6.658  -0.829  14.579  0.00  0.00    +0.000 A 
ATOM      4  N   UNL     1      -6.326  -1.375  15.894  0.00  0.00    +0.000 NA
ATOM      5  C   UNL     1      -7.367  -1.231  16.661  0.00  0.00    +0.000 A 
ATOM      6  N   UNL     1      -8.405  -0.617  15.955  0.00  0.00    +0.000 N 
ATOM      7  C   UNL     1      -7.982  -0.362  14.666  0.00  0.00    +0.000 A 
ATOM      8  C   UNL     1      -8.583   0.218  13.556  0.00  0.00    +0.000 A 
ATOM      9  C   UNL     1      -7.881   0.339  12.378  0.00  0.00    +0.000 A 
ATOM     10 CL   UNL     1      -8.652   1.097  10.964  0.00  0.00    +0.000 Cl
ATOM     11  H   UNL     1      -9.327  -0.392  16.331  0.00  0.00    +0.000 HD
ENDROOT
BRANCH   1  15
ATOM     12  C   UNL     1      -4.230   0.275   8.732  0.00  0.00    +0.000 A 
ATOM     13  C   UNL     1      -4.380  -0.983   9.291  0.00  0.00    +0.000 A 
ATOM     14  C   UNL     1      -5.343  -1.040  10.326  0.00  0.00    +0.000 A 
ATOM     15  C   UNL     1      -5.809   0.011  10.975  0.00  0.00    +0.000 A 
ATOM     16  C   UNL     1      -5.569   1.231  10.406  0.00  0.00    +0.000 A 
ATOM     17  C   UNL     1      -4.744   1.353   9.314  0.00  0.00    +0.000 A 
BRANCH  12  21
ATOM     18  C   UNL     1      -1.977   0.509   5.112  0.00  0.00    +0.000 A 
ATOM     19  C   UNL     1      -3.064  -0.348   5.164  0.00  0.00    +0.000 A 
ATOM     20  C   UNL     1      -3.865  -0.188   6.320  0.00  0.00    +0.000 A 
ATOM     21  C   UNL     1      -3.475   0.426   7.422  0.00  0.00    +0.000 A 
ATOM     22  C   UNL     1      -2.355   1.204   7.322  0.00  0.00    +0.000 A 
ATOM     23  C   UNL     1      -1.593   1.201   6.178  0.00  0.00    +0.000 A 
BRANCH  18  27
ATOM     24  S   UNL     1       0.333   0.668   3.849  0.00  0.00    +0.000 S 
ATOM     25  C   UNL     1       0.936  -0.905   4.511  0.00  0.00    +0.000 C 
ATOM     26  O   UNL     1       0.843   1.818   4.720  0.00  0.00    +0.000 OA
ATOM     27  N   UNL     1      -1.242   0.668   3.849  0.00  0.00    +0.000 NA
BRANCH  24  28
ATOM     28  N   UNL     1       0.920   0.874   2.202  0.00  0.00    +0.000 NA
ATOM     29  H   UNL     1       1.940   0.874   2.202  0.00  0.00    +0.000 HD
BRANCH  28  31
ATOM     30  C   UNL     1       0.936  -0.053  -0.057  0.00  0.00    +0.000 C 
ATOM     31  C   UNL     1       0.430  -0.231   1.365  0.00  0.00    +0.000 C 
ENDBRANCH  28  31
ENDBRANCH  24  28
ENDBRANCH  18  27
ENDBRANCH  12  21
ENDBRANCH   1  15
BRANCH   5  32
ATOM     32  O   UNL     1      -7.438  -1.640  18.019  0.00  0.00    +0.000 OA
BRANCH  32  33
ATOM     33  C   UNL     1      -6.317  -2.256  18.635  0.00  0.00    +0.000 C 
ATOM     34  C   UNL     1      -5.280  -1.405  18.596  0.00  0.00    +0.000 C 
ATOM     35  O   UNL     1      -4.590  -1.531  17.321  0.00  0.00    +0.000 OA
ATOM     36  C   UNL     1      -4.920  -2.936  16.783  0.00  0.00    +0.000 C 
ATOM     37  C   UNL     1      -3.710  -3.831  16.950  0.00  0.00    +0.000 C 
ATOM     38  C   UNL     1      -3.736  -4.301  18.227  0.00  0.00    +0.000 C 
ATOM     39  O   UNL     1      -5.112  -4.436  18.678  0.00  0.00    +0.000 OA
ATOM     40  C   UNL     1      -5.951  -3.476  17.814  0.00  0.00    +0.000 C 
BRANCH  37  41
ATOM     41  O   UNL     1      -2.510  -3.114  16.697  0.00  0.00    +0.000 OA
ATOM     42  H   UNL     1      -2.442  -2.345  17.333  0.00  0.00    +0.000 HD
ENDBRANCH  37  41
ENDBRANCH  32  33
ENDBRANCH   5  32
TORSDOF 8
