REMARK  Name = 
REMARK  8 active torsions:
REMARK  status: ('A' for Active; 'I' for Inactive)
REMARK    1  A    between atoms: C_1  and  C_2
REMARK    2  A    between atoms: C_2  and  C_3
REMARK    3  A    between atoms: C_3  and  N_4
REMARK    4  A    between atoms: C_3  and  C_27
REMARK    5  A    between atoms: C_5  and  C_7
REMARK    6  A    between atoms: C_13  and  C_14
REMARK    7  A    between atoms: N_16  and  C_17
REMARK    8  A    between atoms: C_31  and  C_32
REMARK                            x       y       z     vdW  Elec       q    Type
REMARK                         _______ _______ _______ _____ _____    ______ ____
ROOT
ATOM      1  C   UNL     1      -0.664  -4.894   0.326  0.00  0.00    +0.000 A 
ATOM      2  C   UNL     1      -1.859  -5.561   0.265  0.00  0.00    +0.000 A 
ATOM      3  N   UNL     1      -1.783  -6.536  -0.681  0.00  0.00    +0.000 N 
ATOM      4  C   UNL     1      -0.546  -6.535  -1.290  0.00  0.00    +0.000 A 
ATOM      5  N   UNL     1       0.007  -7.265  -2.257  0.00  0.00    +0.000 NA
ATOM      6  C   UNL     1       1.247  -7.027  -2.660  0.00  0.00    +0.000 A 
ATOM      7  C   UNL     1       2.011  -6.011  -2.062  0.00  0.00    +0.000 A 
ATOM      8  N   UNL     1       1.455  -5.278  -1.097  0.00  0.00    +0.000 NA
ATOM      9  C   UNL     1       0.209  -5.508  -0.693  0.00  0.00    +0.000 A 
ATOM     10  H   UNL     1      -2.540  -7.182  -0.908  0.00  0.00    +0.000 HD
ENDROOT
BRANCH   7  11
ATOM     11  C   UNL     1       3.442  -5.753  -2.505  0.00  0.00    +0.000 A 
ATOM     12  N   UNL     1       4.510  -5.824  -1.736  0.00  0.00    +0.000 NA
ATOM     13  N   UNL     1       5.601  -5.535  -2.430  0.00  0.00    +0.000 N 
ATOM     14  C   UNL     1       6.972  -5.512  -1.901  0.00  0.00    +0.000 C 
ATOM     15  C   UNL     1       5.248  -5.267  -3.687  0.00  0.00    +0.000 A 
ATOM     16  C   UNL     1       5.941  -4.905  -4.861  0.00  0.00    +0.000 A 
ATOM     17  C   UNL     1       5.248  -4.704  -6.003  0.00  0.00    +0.000 A 
ATOM     18 CL   UNL     1       6.127  -4.256  -7.485  0.00  0.00    +0.000 Cl
ATOM     19  C   UNL     1       3.896  -4.835  -6.048  0.00  0.00    +0.000 A 
ATOM     20  C   UNL     1       3.180  -5.185  -4.956  0.00  0.00    +0.000 A 
ATOM     21  C   UNL     1       3.833  -5.409  -3.742  0.00  0.00    +0.000 A 
ENDBRANCH   7  11
BRANCH   1  23
ATOM     22  N   UNL     1       0.549  -2.731   1.074  0.00  0.00    +0.000 N 
ATOM     23  C   UNL     1      -0.296  -3.888   1.405  0.00  0.00    +0.000 C 
ATOM     24  O   UNL     1      -0.720  -4.046   2.593  0.00  0.00    +0.000 OA
ATOM     25  H   UNL     1       0.795  -2.056   1.798  0.00  0.00    +0.000 HD
BRANCH  22  26
ATOM     26  C   UNL     1       1.039  -2.548  -0.299  0.00  0.00    +0.000 C 
BRANCH  26  27
ATOM     27  C   UNL     1       0.532  -3.683  -1.174  0.00  0.00    +0.000 C 
ATOM     28  O   UNL     1       1.358  -4.448  -1.763  0.00  0.00    +0.000 OA
ATOM     29  N   UNL     1      -0.913  -3.896  -1.338  0.00  0.00    +0.000 N 
ATOM     30  C   UNL     1      -1.878  -5.094  -1.312  0.00  0.00    +0.000 C 
ATOM     31  C   UNL     1      -2.812  -4.261  -2.204  0.00  0.00    +0.000 C 
ATOM     32  C   UNL     1      -2.144  -3.011  -1.607  0.00  0.00    +0.000 C 
BRANCH  31  33
ATOM     33  C   UNL     1      -4.320  -4.451  -2.186  0.00  0.00    +0.000 C 
ATOM     34  N   UNL     1      -5.571  -4.609  -2.171  0.00  0.00    +0.000 NA
ENDBRANCH  31  33
ENDBRANCH  26  27
BRANCH  26  36
ATOM     35  C   UNL     1       1.039  -0.087   0.029  0.00  0.00    +0.000 C 
ATOM     36  C   UNL     1       0.532  -1.223  -0.845  0.00  0.00    +0.000 C 
ENDBRANCH  26  36
ENDBRANCH  22  26
ENDBRANCH   1  23
TORSDOF 6
