REMARK  Name = 
REMARK  8 active torsions:
REMARK  status: ('A' for Active; 'I' for Inactive)
REMARK    1  A    between atoms: C_2  and  O_3
REMARK    2  A    between atoms: C_2  and  C_4
REMARK    3  A    between atoms: C_11  and  C_12
REMARK    4  A    between atoms: C_15  and  O_16
REMARK    5  A    between atoms: O_16  and  C_17
REMARK    6  A    between atoms: C_17  and  C_18
REMARK    7  A    between atoms: C_18  and  C_19
REMARK    8  A    between atoms: C_19  and  C_20
REMARK                            x       y       z     vdW  Elec       q    Type
REMARK                         _______ _______ _______ _____ _____    ______ ____
ROOT
ATOM      1  C   UNL     1       3.010  -0.850   1.113  0.00  0.00    +0.000 A 
ATOM      2  C   UNL     1       4.005  -0.415   1.958  0.00  0.00    +0.000 A 
ATOM      3  N   UNL     1       4.284  -1.368   2.901  0.00  0.00    +0.000 N 
ATOM      4  C   UNL     1       3.502  -2.473   2.655  0.00  0.00    +0.000 A 
ATOM      5  C   UNL     1       3.495  -3.712   3.304  0.00  0.00    +0.000 A 
ATOM      6  C   UNL     1       2.640  -4.663   2.783  0.00  0.00    +0.000 A 
ATOM      7 CL   UNL     1       2.594  -6.246   3.519  0.00  0.00    +0.000 Cl
ATOM      8  C   UNL     1       1.818  -4.430   1.667  0.00  0.00    +0.000 A 
ATOM      9  C   UNL     1       1.833  -3.195   1.040  0.00  0.00    +0.000 A 
ATOM     10  C   UNL     1       2.678  -2.186   1.536  0.00  0.00    +0.000 A 
ATOM     11  H   UNL     1       4.959  -1.274   3.659  0.00  0.00    +0.000 HD
ENDROOT
BRANCH   8  12
ATOM     12  C   UNL     1       0.912  -5.535   1.147  0.00  0.00    +0.000 A 
ATOM     13  C   UNL     1       1.049  -6.052  -0.131  0.00  0.00    +0.000 A 
ATOM     14  C   UNL     1      -0.025  -6.881  -0.532  0.00  0.00    +0.000 A 
ATOM     15  C   UNL     1      -0.896  -7.430   0.294  0.00  0.00    +0.000 A 
ATOM     16  C   UNL     1      -0.936  -6.921   1.562  0.00  0.00    +0.000 A 
ATOM     17  C   UNL     1      -0.000  -6.009   1.987  0.00  0.00    +0.000 A 
BRANCH  15  18
ATOM     18  O   UNL     1      -1.747  -8.492  -0.113  0.00  0.00    +0.000 OA
BRANCH  18  19
ATOM     19  C   UNL     1      -2.671  -9.054   0.807  0.00  0.00    +0.000 C 
BRANCH  19  20
ATOM     20  C   UNL     1      -1.917  -9.623   1.998  0.00  0.00    +0.000 C 
BRANCH  20  21
ATOM     21  C   UNL     1      -1.134  -8.512   2.680  0.00  0.00    +0.000 C 
BRANCH  21  22
ATOM     22  C   UNL     1      -2.095  -7.435   3.156  0.00  0.00    +0.000 C 
ATOM     23  C   UNL     1      -2.159  -7.165   4.670  0.00  0.00    +0.000 C 
ATOM     24  O   UNL     1      -2.469  -5.702   4.316  0.00  0.00    +0.000 OA
ATOM     25  C   UNL     1      -1.738  -5.947   2.986  0.00  0.00    +0.000 C 
ENDBRANCH  21  22
ENDBRANCH  20  21
ENDBRANCH  19  20
ENDBRANCH  18  19
ENDBRANCH  15  18
ENDBRANCH   8  12
BRANCH   1  27
ATOM     26  O   UNL     1       0.980  -0.090   0.038  0.00  0.00    +0.000 OA
ATOM     27  C   UNL     1       2.251  -0.090   0.038  0.00  0.00    +0.000 C 
BRANCH  27  28
ATOM     28  O   UNL     1       2.961   0.620  -0.966  0.00  0.00    +0.000 OA
ATOM     29  H   UNL     1       3.961   0.620  -0.966  0.00  0.00    +0.000 HD
ENDBRANCH  27  28
ENDBRANCH   1  27
TORSDOF 8
