REMARK  Name = 
REMARK  12 active torsions:
REMARK  status: ('A' for Active; 'I' for Inactive)
REMARK    1  A    between atoms: C_1  and  O_2
REMARK    2  A    between atoms: O_2  and  C_3
REMARK    3  A    between atoms: C_3  and  C_4
REMARK    4  A    between atoms: C_4  and  N_5
REMARK    5  A    between atoms: N_5  and  C_6
REMARK    6  A    between atoms: N_5  and  C_28
REMARK    7  A    between atoms: C_6  and  C_7
REMARK    8  A    between atoms: N_11  and  C_12
REMARK    9  A    between atoms: C_25  and  O_26
REMARK   10  A    between atoms: O_26  and  C_27
REMARK   11  A    between atoms: C_28  and  C_29
REMARK   12  A    between atoms: C_28  and  C_30
REMARK                            x       y       z     vdW  Elec       q    Type
REMARK                         _______ _______ _______ _____ _____    ______ ____
ROOT
ATOM      1  C   UNL     1      -1.123  -1.906   3.186  0.00  0.00    +0.000 A 
ATOM      2  C   UNL     1      -1.801  -0.721   3.186  0.00  0.00    +0.000 A 
ATOM      3  C   UNL     1      -3.215  -0.720   3.200  0.00  0.00    +0.000 A 
ATOM      4  C   UNL     1      -4.010   0.462   3.202  0.00  0.00    +0.000 A 
ATOM      5  N   UNL     1      -3.344   1.771   3.153  0.00  0.00    +0.000 N 
ATOM      6  N   UNL     1      -5.320   0.414   3.246  0.00  0.00    +0.000 NA
ATOM      7  C   UNL     1      -5.902  -0.824   3.266  0.00  0.00    +0.000 A 
ATOM      8  N   UNL     1      -5.292  -1.977   3.244  0.00  0.00    +0.000 NA
ATOM      9  C   UNL     1      -3.921  -1.944   3.213  0.00  0.00    +0.000 A 
ATOM     10  C   UNL     1      -3.189  -3.152   3.186  0.00  0.00    +0.000 A 
ATOM     11  C   UNL     1      -1.822  -3.128   3.186  0.00  0.00    +0.000 A 
ATOM     12  H   UNL     1      -2.326   1.825   3.119  0.00  0.00    +0.000 HD
ENDROOT
BRANCH   5  13
ATOM     13  C   UNL     1      -4.145   3.004   3.154  0.00  0.00    +0.000 A 
ATOM     14  C   UNL     1      -4.063   3.895   2.104  0.00  0.00    +0.000 A 
ATOM     15  C   UNL     1      -4.817   5.062   2.092  0.00  0.00    +0.000 A 
ATOM     16  C   UNL     1      -5.667   5.328   3.163  0.00  0.00    +0.000 A 
ATOM     17  C   UNL     1      -5.749   4.434   4.214  0.00  0.00    +0.000 A 
ATOM     18 CL   UNL     1      -6.833   4.734   5.529  0.00  0.00    +0.000 Cl
ATOM     19  C   UNL     1      -4.986   3.288   4.199  0.00  0.00    +0.000 A 
ATOM     20  F   UNL     1      -5.090   2.412   5.219  0.00  0.00    +0.000 F 
ENDBRANCH   5  13
BRANCH  11  21
ATOM     21  O   UNL     1      -1.099  -4.351   3.186  0.00  0.00    +0.000 OA
ATOM     22  C   UNL     1       0.320  -4.336   3.186  0.00  0.00    +0.000 C 
ENDBRANCH  11  21
BRANCH   1  23
ATOM     23  C   UNL     1       0.397  -1.906   3.186  0.00  0.00    +0.000 C 
BRANCH  23  24
ATOM     24  N   UNL     1       0.887  -0.866   2.270  0.00  0.00    +0.000 NA
BRANCH  24  25
ATOM     25  C   UNL     1       0.397  -1.139   0.911  0.00  0.00    +0.000 C 
ATOM     26  C   UNL     1      -1.123  -1.139   0.911  0.00  0.00    +0.000 C 
BRANCH  25  27
ATOM     27  C   UNL     1       0.904  -0.064  -0.036  0.00  0.00    +0.000 C 
ATOM     28  N   UNL     1       1.749  -0.432  -1.181  0.00  0.00    +0.000 N 
ATOM     29  O   UNL     1       0.597   1.153   0.162  0.00  0.00    +0.000 OA
ATOM     30  H   UNL     1       2.089   0.290  -1.817  0.00  0.00    +0.000 HD
ATOM     31  H   UNL     1       1.995  -1.409  -1.340  0.00  0.00    +0.000 HD
ENDBRANCH  25  27
ENDBRANCH  24  25
BRANCH  24  32
ATOM     32  C   UNL     1       0.397   0.447   2.712  0.00  0.00    +0.000 C 
BRANCH  32  33
ATOM     33  C   UNL     1       0.904   1.522   1.765  0.00  0.00    +0.000 C 
BRANCH  33  35
ATOM     34  C   UNL     1       0.904  -0.010   0.025  0.00  0.00    +0.000 C 
ATOM     35  O   UNL     1       0.430   1.259   0.453  0.00  0.00    +0.000 OA
ENDBRANCH  33  35
ENDBRANCH  32  33
ENDBRANCH  24  32
ENDBRANCH  23  24
ENDBRANCH   1  23
TORSDOF 9
