REMARK  Name = 
REMARK  9 active torsions:
REMARK  status: ('A' for Active; 'I' for Inactive)
REMARK    1  A    between atoms: C_1  and  O_2
REMARK    2  A    between atoms: O_2  and  C_3
REMARK    3  A    between atoms: N_6  and  C_7
REMARK    4  A    between atoms: N_6  and  C_8
REMARK    5  A    between atoms: C_8  and  C_9
REMARK    6  A    between atoms: C_9  and  O_10
REMARK    7  A    between atoms: C_13  and  C_14
REMARK    8  A    between atoms: C_17  and  C_18
REMARK    9  A    between atoms: C_18  and  O_20
REMARK                            x       y       z     vdW  Elec       q    Type
REMARK                         _______ _______ _______ _____ _____    ______ ____
ROOT
ATOM      1  C   UNL     1       3.372   1.581   0.667  0.00  0.00    +0.000 A 
ATOM      2  C   UNL     1       3.644   1.778  -0.677  0.00  0.00    +0.000 A 
ATOM      3  C   UNL     1       4.651   1.012  -1.291  0.00  0.00    +0.000 A 
ATOM      4  C   UNL     1       5.142   0.888  -2.639  0.00  0.00    +0.000 A 
ATOM      5  C   UNL     1       6.068  -0.130  -2.619  0.00  0.00    +0.000 A 
ATOM      6  N   UNL     1       6.217  -0.617  -1.348  0.00  0.00    +0.000 N 
ATOM      7  C   UNL     1       5.346   0.049  -0.516  0.00  0.00    +0.000 A 
ATOM      8  C   UNL     1       5.090  -0.159   0.843  0.00  0.00    +0.000 A 
ATOM      9  C   UNL     1       4.099   0.626   1.399  0.00  0.00    +0.000 A 
ATOM     10 CL   UNL     1       3.699   0.405   3.084  0.00  0.00    +0.000 Cl
ATOM     11  H   UNL     1       6.866  -1.351  -1.065  0.00  0.00    +0.000 HD
ENDROOT
BRANCH   1  19
ATOM     12  C   UNL     1       0.963   2.254   0.924  0.00  0.00    +0.000 A 
ATOM     13  N   UNL     1      -0.057   2.912   1.484  0.00  0.00    +0.000 NA
ATOM     14  C   UNL     1       0.205   3.669   2.561  0.00  0.00    +0.000 A 
ATOM     15  N   UNL     1      -0.900   4.402   3.195  0.00  0.00    +0.000 N 
ATOM     16  C   UNL     1      -2.260   4.298   2.648  0.00  0.00    +0.000 C 
ATOM     17  C   UNL     1       1.473   3.786   3.097  0.00  0.00    +0.000 A 
ATOM     18  C   UNL     1       2.538   3.113   2.494  0.00  0.00    +0.000 A 
ATOM     19  C   UNL     1       2.260   2.334   1.378  0.00  0.00    +0.000 A 
BRANCH  12  21
ATOM     20  C   UNL     1       1.093  -0.029   0.020  0.00  0.00    +0.000 C 
ATOM     21  O   UNL     1       0.620   1.306  -0.076  0.00  0.00    +0.000 OA
ENDBRANCH  12  21
BRANCH  15  22
ATOM     22  C   UNL     1      -0.645   5.239   4.376  0.00  0.00    +0.000 C 
BRANCH  22  23
ATOM     23  C   UNL     1      -0.085   4.378   5.497  0.00  0.00    +0.000 C 
BRANCH  23  24
ATOM     24  O   UNL     1       1.129   3.778   5.071  0.00  0.00    +0.000 OA
ATOM     25  H   UNL     1       0.955   3.208   4.267  0.00  0.00    +0.000 HD
ENDBRANCH  23  24
ENDBRANCH  22  23
ENDBRANCH  15  22
ENDBRANCH   1  19
BRANCH   4  26
ATOM     26  C   UNL     1       4.722   1.715  -3.843  0.00  0.00    +0.000 C 
ATOM     27  O   UNL     1       5.244   1.492  -4.981  0.00  0.00    +0.000 OA
BRANCH  26  28
ATOM     28  O   UNL     1       3.747   2.736  -3.697  0.00  0.00    +0.000 OA
ATOM     29  H   UNL     1       3.470   3.281  -4.489  0.00  0.00    +0.000 HD
ENDBRANCH  26  28
ENDBRANCH   4  26
TORSDOF 7
