REMARK  Name = 
REMARK  8 active torsions:
REMARK  status: ('A' for Active; 'I' for Inactive)
REMARK    1  A    between atoms: C_1  and  O_2
REMARK    2  A    between atoms: O_2  and  C_3
REMARK    3  A    between atoms: N_10  and  C_11
REMARK    4  A    between atoms: C_21  and  C_22
REMARK    5  A    between atoms: C_22  and  N_23
REMARK    6  A    between atoms: N_23  and  C_24
REMARK    7  A    between atoms: C_24  and  C_25
REMARK    8  A    between atoms: C_24  and  C_26
REMARK                            x       y       z     vdW  Elec       q    Type
REMARK                         _______ _______ _______ _____ _____    ______ ____
ROOT
ATOM      1  C   UNL     1       0.806  -2.344  -0.605  0.00  0.00    +0.000 A 
ATOM      2  C   UNL     1      -0.073  -3.337  -0.935  0.00  0.00    +0.000 A 
ATOM      3  C   UNL     1       0.354  -4.433  -1.719  0.00  0.00    +0.000 A 
ATOM      4  N   UNL     1      -0.543  -5.409  -2.071  0.00  0.00    +0.000 NA
ATOM      5  C   UNL     1      -0.080  -6.392  -2.793  0.00  0.00    +0.000 A 
ATOM      6  N   UNL     1       1.209  -6.559  -3.223  0.00  0.00    +0.000 NA
ATOM      7  C   UNL     1       2.080  -5.641  -2.882  0.00  0.00    +0.000 A 
ATOM      8  N   UNL     1       3.480  -5.794  -3.302  0.00  0.00    +0.000 N 
ATOM      9  C   UNL     1       1.708  -4.499  -2.117  0.00  0.00    +0.000 A 
ATOM     10  C   UNL     1       2.601  -3.466  -1.752  0.00  0.00    +0.000 A 
ATOM     11  C   UNL     1       2.152  -2.408  -1.015  0.00  0.00    +0.000 A 
ATOM     12  H   UNL     1       4.170  -5.088  -3.045  0.00  0.00    +0.000 HD
ENDROOT
BRANCH   8  13
ATOM     13  C   UNL     1       3.887  -6.965  -4.092  0.00  0.00    +0.000 A 
ATOM     14  C   UNL     1       4.939  -7.791  -3.754  0.00  0.00    +0.000 A 
ATOM     15  C   UNL     1       5.378  -8.785  -4.619  0.00  0.00    +0.000 A 
ATOM     16  C   UNL     1       4.737  -8.944  -5.847  0.00  0.00    +0.000 A 
ATOM     17  C   UNL     1       3.683  -8.116  -6.184  0.00  0.00    +0.000 A 
ATOM     18 CL   UNL     1       2.854  -8.331  -7.687  0.00  0.00    +0.000 Cl
ATOM     19  C   UNL     1       3.274  -7.137  -5.307  0.00  0.00    +0.000 A 
ATOM     20  F   UNL     1       2.231  -6.348  -5.636  0.00  0.00    +0.000 F 
ENDBRANCH   8  13
BRANCH   1  22
ATOM     21  C   UNL     1       0.937   0.016   0.076  0.00  0.00    +0.000 C 
ATOM     22  O   UNL     1       0.464  -1.304   0.299  0.00  0.00    +0.000 OA
ENDBRANCH   1  22
BRANCH  11  23
ATOM     23  C   UNL     1       3.111  -1.290  -0.636  0.00  0.00    +0.000 C 
BRANCH  23  24
ATOM     24  N   UNL     1       4.213  -1.842   0.165  0.00  0.00    +0.000 NA
ATOM     25  H   UNL     1       3.837  -2.269   1.012  0.00  0.00    +0.000 HD
BRANCH  24  26
ATOM     26  C   UNL     1       5.140  -0.761   0.532  0.00  0.00    +0.000 C 
ATOM     27  C   UNL     1       4.399   0.288   1.344  0.00  0.00    +0.000 C 
BRANCH  26  28
ATOM     28  C   UNL     1       6.280  -1.331   1.360  0.00  0.00    +0.000 C 
ATOM     29  N   UNL     1       7.666  -1.210   0.886  0.00  0.00    +0.000 N 
ATOM     30  O   UNL     1       6.035  -1.913   2.463  0.00  0.00    +0.000 OA
ATOM     31  H   UNL     1       8.431  -1.592   1.442  0.00  0.00    +0.000 HD
ATOM     32  H   UNL     1       7.863  -0.743   0.000  0.00  0.00    +0.000 HD
ENDBRANCH  26  28
ENDBRANCH  24  26
ENDBRANCH  23  24
ENDBRANCH  11  23
TORSDOF 6
