
 OpenBabel03132512083D

 35 38  0  0  0  0  0  0  0  0999 V2000
    1.0781    0.0335   -0.0526 O   0  0  0  0  0  0  0  0  0  0  0  0
    2.3490    0.0335   -0.0526 C   0  0  0  0  0  0  0  0  0  0  0  0
    3.0590    1.2076   -0.4183 O   0  0  0  0  0  0  0  0  0  0  0  0
    3.1090   -1.2233    0.3387 C   0  0  0  0  0  0  0  0  0  0  0  0
    4.1155   -1.3350    1.1554 N   0  0  0  0  0  0  0  0  0  0  0  0
    4.4986   -2.6748    1.2686 N   0  0  0  0  0  0  0  0  0  0  0  0
    3.6770   -3.4444    0.4704 C   0  0  0  0  0  0  0  0  0  0  0  0
    3.6027   -4.8063    0.2015 C   0  0  0  0  0  0  0  0  0  0  0  0
    2.6420   -5.2859   -0.6602 C   0  0  0  0  0  0  0  0  0  0  0  0
    2.5435   -7.0325   -0.9891 Cl  0  0  0  0  0  0  0  0  0  0  0  0
    1.7451   -4.4138   -1.2776 C   0  0  0  0  0  0  0  0  0  0  0  0
    0.6989   -4.9584   -2.2364 C   0  0  0  0  0  0  0  0  0  0  0  0
   -0.1915   -5.8485   -1.7952 C   0  0  0  0  0  0  0  0  0  0  0  0
   -1.1310   -6.3932   -2.7143 C   0  0  0  0  0  0  0  0  0  0  0  0
   -0.9231   -6.2247   -4.0931 C   0  0  0  0  0  0  0  0  0  0  0  0
   -0.0494   -5.3604   -4.5186 C   0  0  0  0  0  0  0  0  0  0  0  0
    0.6783   -4.5884   -3.6032 C   0  0  0  0  0  0  0  0  0  0  0  0
    0.1827   -5.1875   -6.0108 C   0  0  0  0  0  0  0  0  0  0  0  0
    0.6488   -6.5057   -6.6072 C   0  0  0  0  0  0  0  0  0  0  0  0
   -1.7196   -7.0528   -5.0883 C   0  0  0  0  0  0  0  0  0  0  0  0
    1.8032   -3.0583   -1.0217 C   0  0  0  0  0  0  0  0  0  0  0  0
    2.7718   -2.5614   -0.1443 C   0  0  0  0  0  0  0  0  0  0  0  0
    4.0590    1.2076   -0.4183 H   0  0  0  0  0  0  0  0  0  0  0  0
    5.2615   -3.0264    1.8472 H   0  0  0  0  0  0  0  0  0  0  0  0
    4.2919   -5.4816    0.6641 H   0  0  0  0  0  0  0  0  0  0  0  0
   -0.1990   -6.1476   -0.7678 H   0  0  0  0  0  0  0  0  0  0  0  0
   -1.9879   -6.9262   -2.3586 H   0  0  0  0  0  0  0  0  0  0  0  0
    1.2152   -3.7244   -3.9350 H   0  0  0  0  0  0  0  0  0  0  0  0
   -0.7299   -4.8861   -6.4811 H   0  0  0  0  0  0  0  0  0  0  0  0
    0.9307   -4.4393   -6.1711 H   0  0  0  0  0  0  0  0  0  0  0  0
    0.8122   -6.3840   -7.6576 H   0  0  0  0  0  0  0  0  0  0  0  0
    1.5614   -6.8071   -6.1368 H   0  0  0  0  0  0  0  0  0  0  0  0
   -1.0490   -7.6353   -5.6850 H   0  0  0  0  0  0  0  0  0  0  0  0
   -2.3839   -7.7040   -4.5596 H   0  0  0  0  0  0  0  0  0  0  0  0
    1.1109   -2.3917   -1.4922 H   0  0  0  0  0  0  0  0  0  0  0  0
  1  2  2  0  0  0  0
  2  3  1  0  0  0  0
  2  4  1  0  0  0  0
  3 23  1  0  0  0  0
  4  5  2  0  0  0  0
  4 22  1  0  0  0  0
  5  6  1  0  0  0  0
  6  7  1  0  0  0  0
  6 24  1  0  0  0  0
  7  8  1  0  0  0  0
  7 22  2  0  0  0  0
  8  9  2  0  0  0  0
  8 25  1  0  0  0  0
  9 10  1  0  0  0  0
  9 11  1  0  0  0  0
 11 12  1  0  0  0  0
 11 21  2  0  0  0  0
 12 13  1  0  0  0  0
 12 17  2  0  0  0  0
 13 14  2  0  0  0  0
 13 26  1  0  0  0  0
 14 15  1  0  0  0  0
 14 27  1  0  0  0  0
 15 16  2  0  0  0  0
 15 20  1  0  0  0  0
 16 17  1  0  0  0  0
 16 18  1  0  0  0  0
 17 28  1  0  0  0  0
 18 19  1  0  0  0  0
 18 29  1  0  0  0  0
 18 30  1  0  0  0  0
 19 20  1  0  0  0  0
 19 31  1  0  0  0  0
 19 32  1  0  0  0  0
 20 33  1  0  0  0  0
 20 34  1  0  0  0  0
 21 22  1  0  0  0  0
 21 35  1  0  0  0  0
M  END
