REMARK  Name = 
REMARK  10 active torsions:
REMARK  status: ('A' for Active; 'I' for Inactive)
REMARK    1  A    between atoms: C_1  and  O_2
REMARK    2  A    between atoms: O_2  and  C_3
REMARK    3  A    between atoms: C_5  and  C_6
REMARK    4  A    between atoms: C_16  and  C_17
REMARK    5  A    between atoms: C_17  and  C_18
REMARK    6  A    between atoms: C_17  and  C_19
REMARK    7  A    between atoms: C_17  and  C_20
REMARK    8  A    between atoms: N_22  and  C_23
REMARK    9  A    between atoms: C_26  and  N_27
REMARK   10  A    between atoms: C_42  and  N_43
REMARK                            x       y       z     vdW  Elec       q    Type
REMARK                         _______ _______ _______ _____ _____    ______ ____
ROOT
ATOM      1  C   UNL     1      -0.844  -3.111   4.753  0.00  0.00    +0.000 A 
ATOM      2  C   UNL     1      -0.696  -3.079   6.138  0.00  0.00    +0.000 A 
ATOM      3  C   UNL     1      -1.673  -3.642   6.963  0.00  0.00    +0.000 A 
ATOM      4  C   UNL     1      -2.778  -4.241   6.399  0.00  0.00    +0.000 A 
ATOM      5  C   UNL     1      -2.958  -4.264   5.008  0.00  0.00    +0.000 A 
ATOM      6  C   UNL     1      -1.968  -3.693   4.196  0.00  0.00    +0.000 A 
ATOM      7  N   UNL     1      -4.053  -4.833   4.465  0.00  0.00    +0.000 N 
ATOM      8  C   UNL     1      -4.219  -4.862   3.005  0.00  0.00    +0.000 A 
ATOM      9  C   UNL     1      -5.317  -4.248   2.430  0.00  0.00    +0.000 A 
ATOM     10  C   UNL     1      -5.473  -4.264   1.045  0.00  0.00    +0.000 A 
ATOM     11  C   UNL     1      -4.530  -4.907   0.239  0.00  0.00    +0.000 A 
ATOM     12  C   UNL     1      -3.451  -5.536   0.821  0.00  0.00    +0.000 A 
ATOM     13  C   UNL     1      -3.263  -5.512   2.211  0.00  0.00    +0.000 A 
ATOM     14  N   UNL     1      -2.194  -6.112   2.771  0.00  0.00    +0.000 N 
ATOM     15  C   UNL     1      -3.820  -4.887   7.299  0.00  0.00    +0.000 C 
ATOM     16  O   UNL     1      -4.843  -5.442   6.789  0.00  0.00    +0.000 OA
ATOM     17  H   UNL     1      -4.766  -5.245   5.067  0.00  0.00    +0.000 HD
ATOM     18  H   UNL     1      -1.506  -6.582   2.182  0.00  0.00    +0.000 HD
ENDROOT
BRANCH   1  21
ATOM     19  C   UNL     1       0.826  -0.786   2.263  0.00  0.00    +0.000 A 
ATOM     20  C   UNL     1      -0.138  -1.393   3.047  0.00  0.00    +0.000 A 
ATOM     21  C   UNL     1       0.217  -2.436   3.900  0.00  0.00    +0.000 A 
ATOM     22  C   UNL     1       1.545  -2.864   3.972  0.00  0.00    +0.000 A 
ATOM     23  C   UNL     1       2.505  -2.239   3.205  0.00  0.00    +0.000 A 
ATOM     24  C   UNL     1       2.164  -1.202   2.324  0.00  0.00    +0.000 A 
BRANCH  24  25
ATOM     25  N   UNL     1       3.106  -0.610   1.562  0.00  0.00    +0.000 N 
ATOM     26  H   UNL     1       2.848   0.150   0.932  0.00  0.00    +0.000 HD
ATOM     27  H   UNL     1       4.075  -0.922   1.615  0.00  0.00    +0.000 HD
ENDBRANCH  24  25
BRANCH  19  29
ATOM     28  C   UNL     1       0.957  -0.045  -0.078  0.00  0.00    +0.000 C 
ATOM     29  O   UNL     1       0.483   0.144   1.247  0.00  0.00    +0.000 OA
ENDBRANCH  19  29
ENDBRANCH   1  21
BRANCH  11  30
ATOM     30  C   UNL     1      -4.694  -4.911  -1.272  0.00  0.00    +0.000 C 
ATOM     31  C   UNL     1      -6.006  -5.586  -1.638  0.00  0.00    +0.000 C 
ATOM     32  C   UNL     1      -4.699  -3.481  -1.786  0.00  0.00    +0.000 C 
BRANCH  30  33
ATOM     33  C   UNL     1      -3.540  -5.672  -1.905  0.00  0.00    +0.000 C 
ATOM     34  O   UNL     1      -2.637  -6.182  -1.170  0.00  0.00    +0.000 OA
ATOM     35  N   UNL     1      -3.469  -5.819  -3.365  0.00  0.00    +0.000 N 
ATOM     36  H   UNL     1      -3.243  -6.725  -3.777  0.00  0.00    +0.000 HD
BRANCH  35  37
ATOM     37  C   UNL     1      -3.703  -4.756  -4.160  0.00  0.00    +0.000 A 
ATOM     38  C   UNL     1      -3.603  -4.866  -5.555  0.00  0.00    +0.000 A 
ATOM     39  C   UNL     1      -3.840  -3.774  -6.369  0.00  0.00    +0.000 A 
ATOM     40  C   UNL     1      -4.194  -2.551  -5.803  0.00  0.00    +0.000 A 
ATOM     41  C   UNL     1      -4.298  -2.423  -4.416  0.00  0.00    +0.000 A 
ATOM     42  C   UNL     1      -4.038  -3.510  -3.610  0.00  0.00    +0.000 A 
BRANCH  40  43
ATOM     43  N   UNL     1      -4.457  -1.392  -6.668  0.00  0.00    +0.000 N 
ATOM     44  C   UNL     1      -3.700  -0.129  -6.608  0.00  0.00    +0.000 C 
ATOM     45  C   UNL     1      -4.653   1.017  -6.353  0.00  0.00    +0.000 C 
ATOM     46  O   UNL     1      -5.659   1.081  -7.364  0.00  0.00    +0.000 OA
ATOM     47  C   UNL     1      -6.406  -0.136  -7.384  0.00  0.00    +0.000 C 
ATOM     48  C   UNL     1      -5.513  -1.321  -7.699  0.00  0.00    +0.000 C 
ENDBRANCH  40  43
ENDBRANCH  35  37
ENDBRANCH  30  33
ENDBRANCH  11  30
TORSDOF 7
