
 OpenBabel03132512093D

 71 76  0  0  0  0  0  0  0  0999 V2000
    0.9407   -0.0772    0.0230 C   0  0  0  0  0  0  0  0  0  0  0  0
    0.3374   -1.6787   -0.5663 S   0  0  0  0  0  0  0  0  0  0  0  0
    0.9407   -1.9691   -2.2478 C   0  0  0  0  0  0  0  0  0  0  0  0
    0.8828   -3.2511   -2.7692 C   0  0  0  0  0  0  0  0  0  0  0  0
    1.6011   -3.4115   -3.9776 C   0  0  0  0  0  0  0  0  0  0  0  0
    1.9911   -2.4175   -4.7547 C   0  0  0  0  0  0  0  0  0  0  0  0
    1.9606   -1.1667   -4.2034 C   0  0  0  0  0  0  0  0  0  0  0  0
    1.3932   -0.9513   -2.9708 C   0  0  0  0  0  0  0  0  0  0  0  0
    1.2860    0.4182   -2.4475 N   0  0  0  0  0  0  0  0  0  0  0  0
    1.7848    1.5498   -3.2422 C   0  0  0  0  0  0  0  0  0  0  0  0
    1.3171    1.8611   -4.4777 N   0  0  0  0  0  0  0  0  0  0  0  0
    1.7132    3.0456   -5.1211 C   0  0  0  0  0  0  0  0  0  0  0  0
    1.1847    3.3624   -6.4557 N   0  0  0  0  0  0  0  0  0  0  0  0
    1.9732    3.5979   -7.6714 C   0  0  0  0  0  0  0  0  0  0  0  0
    1.5662    2.6558   -8.7880 C   0  0  0  0  0  0  0  0  0  0  0  0
    0.1443    2.8312   -9.1068 N   0  0  0  0  0  0  0  0  0  0  0  0
   -0.0889    4.1999   -9.5899 C   0  0  0  0  0  0  0  0  0  0  0  0
    0.2061    5.4713   -8.7972 C   0  0  0  0  0  0  0  0  0  0  0  0
   -0.6276    5.5259   -7.5353 C   0  0  0  0  0  0  0  0  0  0  0  0
   -2.0584    5.4616   -7.8603 N   0  0  0  0  0  0  0  0  0  0  0  0
   -2.3505    4.1869   -8.5132 C   0  0  0  0  0  0  0  0  0  0  0  0
   -1.5920    4.0609   -9.8241 C   0  0  0  0  0  0  0  0  0  0  0  0
   -0.6442    2.5957   -7.8911 C   0  0  0  0  0  0  0  0  0  0  0  0
   -0.2373    3.5379   -6.7745 C   0  0  0  0  0  0  0  0  0  0  0  0
    2.5970    3.9164   -4.5083 N   0  0  0  0  0  0  0  0  0  0  0  0
    3.0886    3.6168   -3.2301 C   0  0  0  0  0  0  0  0  0  0  0  0
    3.9849    4.4860   -2.5776 C   0  0  0  0  0  0  0  0  0  0  0  0
    4.4119    5.7297   -3.2348 N   0  0  0  0  0  0  0  0  0  0  0  0
    5.3472    6.6369   -2.5543 C   0  0  0  0  0  0  0  0  0  0  0  0
    6.6034    6.7939   -3.3955 C   0  0  0  0  0  0  0  0  0  0  0  0
    6.6340    6.2790   -4.8360 C   0  0  0  0  0  0  0  0  0  0  0  0
    6.6299    7.7850   -4.5617 C   0  0  0  0  0  0  0  0  0  0  0  0
    4.4539    4.1759   -1.3435 N   0  0  0  0  0  0  0  0  0  0  0  0
    4.0570    2.9904   -0.6980 C   0  0  0  0  0  0  0  0  0  0  0  0
    3.1767    2.1149   -1.3131 N   0  0  0  0  0  0  0  0  0  0  0  0
    2.6808    2.4181   -2.5893 C   0  0  0  0  0  0  0  0  0  0  0  0
    0.5841    0.0945    1.0171 H   0  0  0  0  0  0  0  0  0  0  0  0
    0.5841    0.6979   -0.6227 H   0  0  0  0  0  0  0  0  0  0  0  0
    2.0107   -0.0772    0.0230 H   0  0  0  0  0  0  0  0  0  0  0  0
    0.3438   -4.0478   -2.3006 H   0  0  0  0  0  0  0  0  0  0  0  0
    1.8454   -4.4075   -4.2830 H   0  0  0  0  0  0  0  0  0  0  0  0
    2.3135   -2.5822   -5.7616 H   0  0  0  0  0  0  0  0  0  0  0  0
    2.3848   -0.3436   -4.7397 H   0  0  0  0  0  0  0  0  0  0  0  0
    0.8656    0.5833   -1.5329 H   0  0  0  0  0  0  0  0  0  0  0  0
    1.7965    4.6016   -7.9974 H   0  0  0  0  0  0  0  0  0  0  0  0
    3.0089    3.4469   -7.4490 H   0  0  0  0  0  0  0  0  0  0  0  0
    1.7309    1.6472   -8.4709 H   0  0  0  0  0  0  0  0  0  0  0  0
    2.1520    2.8656   -9.6584 H   0  0  0  0  0  0  0  0  0  0  0  0
    0.6172    4.4114  -10.3655 H   0  0  0  0  0  0  0  0  0  0  0  0
    1.2406    5.4719   -8.5240 H   0  0  0  0  0  0  0  0  0  0  0  0
   -0.0204    6.3230   -9.4040 H   0  0  0  0  0  0  0  0  0  0  0  0
   -0.3753    4.6894   -6.9177 H   0  0  0  0  0  0  0  0  0  0  0  0
   -0.4248    6.4407   -7.0187 H   0  0  0  0  0  0  0  0  0  0  0  0
   -2.6059    5.5384   -7.0032 H   0  0  0  0  0  0  0  0  0  0  0  0
   -3.3994    4.1419   -8.7202 H   0  0  0  0  0  0  0  0  0  0  0  0
   -2.0624    3.3868   -7.8638 H   0  0  0  0  0  0  0  0  0  0  0  0
   -1.9121    4.8396  -10.4844 H   0  0  0  0  0  0  0  0  0  0  0  0
   -1.7937    3.1033  -10.2566 H   0  0  0  0  0  0  0  0  0  0  0  0
   -0.4675    1.5920   -7.5651 H   0  0  0  0  0  0  0  0  0  0  0  0
   -1.6799    2.7468   -8.1135 H   0  0  0  0  0  0  0  0  0  0  0  0
   -0.8196    3.3193   -5.9039 H   0  0  0  0  0  0  0  0  0  0  0  0
   -0.4079    4.5477   -7.0844 H   0  0  0  0  0  0  0  0  0  0  0  0
    4.0593    5.9631   -4.1630 H   0  0  0  0  0  0  0  0  0  0  0  0
    4.8846    7.5927   -2.4222 H   0  0  0  0  0  0  0  0  0  0  0  0
    5.6063    6.2310   -1.5988 H   0  0  0  0  0  0  0  0  0  0  0  0
    7.2022    6.6363   -2.5229 H   0  0  0  0  0  0  0  0  0  0  0  0
    7.2631    5.6123   -5.3879 H   0  0  0  0  0  0  0  0  0  0  0  0
    5.7687    5.8091   -5.2547 H   0  0  0  0  0  0  0  0  0  0  0  0
    6.0198    8.6085   -4.8690 H   0  0  0  0  0  0  0  0  0  0  0  0
    7.5086    8.3657   -4.7505 H   0  0  0  0  0  0  0  0  0  0  0  0
    4.4380    2.7632    0.2757 H   0  0  0  0  0  0  0  0  0  0  0  0
  1  2  1  0  0  0  0
  1 37  1  0  0  0  0
  1 38  1  0  0  0  0
  1 39  1  0  0  0  0
  2  3  1  0  0  0  0
  3  4  1  0  0  0  0
  3  8  2  0  0  0  0
  4  5  2  0  0  0  0
  4 40  1  0  0  0  0
  5  6  1  0  0  0  0
  5 41  1  0  0  0  0
  6  7  2  0  0  0  0
  6 42  1  0  0  0  0
  7  8  1  0  0  0  0
  7 43  1  0  0  0  0
  8  9  1  0  0  0  0
  9 10  1  0  0  0  0
  9 44  1  0  0  0  0
 10 11  1  0  0  0  0
 10 36  2  0  0  0  0
 11 12  2  0  0  0  0
 12 13  1  0  0  0  0
 12 25  1  0  0  0  0
 13 14  1  0  0  0  0
 13 24  1  0  0  0  0
 14 15  1  0  0  0  0
 14 45  1  0  0  0  0
 14 46  1  0  0  0  0
 15 16  1  0  0  0  0
 15 47  1  0  0  0  0
 15 48  1  0  0  0  0
 16 17  1  0  0  0  0
 16 23  1  0  0  0  0
 17 18  1  0  0  0  0
 17 22  1  0  0  0  0
 17 49  1  0  0  0  0
 18 19  1  0  0  0  0
 18 50  1  0  0  0  0
 18 51  1  0  0  0  0
 19 20  1  0  0  0  0
 19 52  1  0  0  0  0
 19 53  1  0  0  0  0
 20 21  1  0  0  0  0
 20 54  1  0  0  0  0
 21 22  1  0  0  0  0
 21 55  1  0  0  0  0
 21 56  1  0  0  0  0
 22 57  1  0  0  0  0
 22 58  1  0  0  0  0
 23 24  1  0  0  0  0
 23 59  1  0  0  0  0
 23 60  1  0  0  0  0
 24 61  1  0  0  0  0
 24 62  1  0  0  0  0
 25 26  2  0  0  0  0
 26 27  1  0  0  0  0
 26 36  1  0  0  0  0
 27 28  1  0  0  0  0
 27 33  2  0  0  0  0
 28 29  1  0  0  0  0
 28 63  1  0  0  0  0
 29 30  1  0  0  0  0
 29 64  1  0  0  0  0
 29 65  1  0  0  0  0
 30 31  1  0  0  0  0
 30 32  1  0  0  0  0
 30 66  1  0  0  0  0
 31 32  1  0  0  0  0
 31 67  1  0  0  0  0
 31 68  1  0  0  0  0
 32 69  1  0  0  0  0
 32 70  1  0  0  0  0
 33 34  1  0  0  0  0
 34 35  2  0  0  0  0
 34 71  1  0  0  0  0
 35 36  1  0  0  0  0
M  END
