REMARK  Name = 
REMARK  7 active torsions:
REMARK  status: ('A' for Active; 'I' for Inactive)
REMARK    1  A    between atoms: C_2  and  O_3
REMARK    2  A    between atoms: C_2  and  C_4
REMARK    3  A    between atoms: N_6  and  C_7
REMARK    4  A    between atoms: C_7  and  C_8
REMARK    5  A    between atoms: C_11  and  O_12
REMARK    6  A    between atoms: O_12  and  C_13
REMARK    7  A    between atoms: C_13  and  C_14
REMARK                            x       y       z     vdW  Elec       q    Type
REMARK                         _______ _______ _______ _____ _____    ______ ____
ROOT
ATOM      1  C   UNL     1       5.239  -2.092   1.923  0.00  0.00    +0.000 A 
ATOM      2  C   UNL     1       6.196  -2.755   1.171  0.00  0.00    +0.000 A 
ATOM      3  C   UNL     1       7.231  -1.916   0.694  0.00  0.00    +0.000 A 
ATOM      4  C   UNL     1       7.157  -0.599   0.626  0.00  0.00    +0.000 A 
ATOM      5  C   UNL     1       6.149  -0.010   1.337  0.00  0.00    +0.000 A 
ATOM      6  C   UNL     1       5.174  -0.766   1.941  0.00  0.00    +0.000 A 
ENDROOT
BRANCH   1   7
ATOM      7  C   UNL     1       4.183  -2.852   2.709  0.00  0.00    +0.000 C 
BRANCH   7  10
ATOM      8  C   UNL     1       3.088  -0.879   0.867  0.00  0.00    +0.000 C 
ATOM      9  C   UNL     1       2.481  -1.028   2.272  0.00  0.00    +0.000 C 
ATOM     10  N   UNL     1       2.850  -2.518   2.188  0.00  0.00    +0.000 NA
ATOM     11  C   UNL     1       2.776  -2.372   0.659  0.00  0.00    +0.000 C 
BRANCH   8  13
ATOM     12  O   UNL     1       1.057   0.062  -0.054  0.00  0.00    +0.000 OA
ATOM     13  C   UNL     1       2.328   0.062  -0.054  0.00  0.00    +0.000 C 
BRANCH  13  14
ATOM     14  O   UNL     1       3.038   0.941  -0.914  0.00  0.00    +0.000 OA
ATOM     15  H   UNL     1       4.038   0.941  -0.914  0.00  0.00    +0.000 HD
ENDBRANCH  13  14
ENDBRANCH   8  13
ENDBRANCH   7  10
ENDBRANCH   1   7
BRANCH   4  16
ATOM     16  O   UNL     1       8.076   0.163  -0.142  0.00  0.00    +0.000 OA
BRANCH  16  17
ATOM     17  C   UNL     1       7.961   1.578  -0.188  0.00  0.00    +0.000 C 
BRANCH  17  18
ATOM     18  C   UNL     1       6.604   1.958  -0.755  0.00  0.00    +0.000 A 
ATOM     19  C   UNL     1       6.324   3.294  -0.993  0.00  0.00    +0.000 A 
ATOM     20  C   UNL     1       4.958   3.557  -1.248  0.00  0.00    +0.000 A 
ATOM     21  C   UNL     1       4.071   2.642  -1.595  0.00  0.00    +0.000 A 
ATOM     22 CL   UNL     1       2.489   3.083  -2.282  0.00  0.00    +0.000 Cl
ATOM     23  C   UNL     1       4.433   1.339  -1.399  0.00  0.00    +0.000 A 
ATOM     24 CL   UNL     1       3.229   0.049  -1.634  0.00  0.00    +0.000 Cl
ATOM     25  C   UNL     1       5.713   1.010  -1.022  0.00  0.00    +0.000 A 
ENDBRANCH  17  18
ENDBRANCH  16  17
ENDBRANCH   4  16
TORSDOF 7
