REMARK  Name = 
REMARK  6 active torsions:
REMARK  status: ('A' for Active; 'I' for Inactive)
REMARK    1  A    between atoms: C_2  and  O_3
REMARK    2  A    between atoms: C_2  and  C_4
REMARK    3  A    between atoms: C_6  and  O_7
REMARK    4  A    between atoms: O_7  and  C_8
REMARK    5  A    between atoms: C_14  and  C_15
REMARK    6  A    between atoms: C_16  and  C_17
REMARK                            x       y       z     vdW  Elec       q    Type
REMARK                         _______ _______ _______ _____ _____    ______ ____
ROOT
ATOM      1  C   UNL     1       6.858   0.103   4.193  0.00  0.00    +0.000 A 
ATOM      2  N   UNL     1       7.995   0.807   4.583  0.00  0.00    +0.000 NA
ATOM      3  C   UNL     1       8.770   0.362   5.750  0.00  0.00    +0.000 A 
ATOM      4  C   UNL     1       9.060  -0.991   5.893  0.00  0.00    +0.000 A 
ATOM      5  C   UNL     1       9.720  -1.416   7.034  0.00  0.00    +0.000 A 
ATOM      6 CL   UNL     1      10.062  -3.110   7.210  0.00  0.00    +0.000 Cl
ATOM      7  C   UNL     1      10.145  -0.531   8.014  0.00  0.00    +0.000 A 
ATOM      8  C   UNL     1       9.839   0.820   7.860  0.00  0.00    +0.000 A 
ATOM      9  C   UNL     1       9.152   1.261   6.740  0.00  0.00    +0.000 A 
ATOM     10  N   UNL     1       6.455  -1.022   4.909  0.00  0.00    +0.000 N 
ATOM     11  H   UNL     1       5.623  -1.537   4.624  0.00  0.00    +0.000 HD
ENDROOT
BRANCH   7  12
ATOM     12  C   UNL     1      10.924  -1.022   9.223  0.00  0.00    +0.000 C 
ATOM     13  C   UNL     1      11.592  -1.443  10.261  0.00  0.00    +0.000 C 
BRANCH  13  14
ATOM     14  C   UNL     1      12.370  -1.934  11.470  0.00  0.00    +0.000 A 
ATOM     15  C   UNL     1      13.060  -1.035  12.330  0.00  0.00    +0.000 A 
ATOM     16  C   UNL     1      13.938  -1.545  13.300  0.00  0.00    +0.000 A 
ATOM     17  C   UNL     1      13.915  -2.812  13.596  0.00  0.00    +0.000 A 
ATOM     18  C   UNL     1      13.008  -3.667  12.956  0.00  0.00    +0.000 A 
ATOM     19  C   UNL     1      12.346  -3.231  11.782  0.00  0.00    +0.000 A 
ENDBRANCH  13  14
ENDBRANCH   7  12
BRANCH   1  20
ATOM     20  O   UNL     1       6.108   0.533   3.066  0.00  0.00    +0.000 OA
BRANCH  20  23
ATOM     21  C   UNL     1       3.089  -0.464   1.159  0.00  0.00    +0.000 A 
ATOM     22  C   UNL     1       4.221   0.238   1.568  0.00  0.00    +0.000 A 
ATOM     23  C   UNL     1       4.949  -0.184   2.669  0.00  0.00    +0.000 A 
ATOM     24  C   UNL     1       4.551  -1.307   3.386  0.00  0.00    +0.000 A 
ATOM     25  C   UNL     1       3.429  -2.024   2.986  0.00  0.00    +0.000 A 
ATOM     26  C   UNL     1       2.733  -1.604   1.865  0.00  0.00    +0.000 A 
ATOM     27 CL   UNL     1       1.342  -2.516   1.363  0.00  0.00    +0.000 Cl
BRANCH  21  29
ATOM     28  O   UNL     1       1.058  -0.018  -0.080  0.00  0.00    +0.000 OA
ATOM     29  C   UNL     1       2.329  -0.018  -0.080  0.00  0.00    +0.000 C 
BRANCH  29  30
ATOM     30  O   UNL     1       3.039   0.398  -1.237  0.00  0.00    +0.000 OA
ATOM     31  H   UNL     1       4.039   0.398  -1.237  0.00  0.00    +0.000 HD
ENDBRANCH  29  30
ENDBRANCH  21  29
ENDBRANCH  20  23
ENDBRANCH   1  20
TORSDOF 6
