REMARK  Name = 
REMARK  6 active torsions:
REMARK  status: ('A' for Active; 'I' for Inactive)
REMARK    1  A    between atoms: C_1  and  S_2
REMARK    2  A    between atoms: S_2  and  C_3
REMARK    3  A    between atoms: C_8  and  N_9
REMARK    4  A    between atoms: N_9  and  C_10
REMARK    5  A    between atoms: N_23  and  C_24
REMARK    6  A    between atoms: C_24  and  C_25
REMARK                            x       y       z     vdW  Elec       q    Type
REMARK                         _______ _______ _______ _____ _____    ______ ____
ROOT
ATOM      1  C   UNL     1       2.128   0.367   5.886  0.00  0.00    +0.000 A 
ATOM      2  N   UNL     1       3.275  -0.224   6.308  0.00  0.00    +0.000 NA
ATOM      3  C   UNL     1       3.713  -0.081   7.635  0.00  0.00    +0.000 A 
ATOM      4  N   UNL     1       4.964  -0.724   8.063  0.00  0.00    +0.000 N 
ATOM      5  C   UNL     1       5.374  -1.766   9.119  0.00  0.00    +0.000 C 
ATOM      6  C   UNL     1       6.579  -2.068   8.228  0.00  0.00    +0.000 C 
ATOM      7  C   UNL     1       7.901  -2.561   8.822  0.00  0.00    +0.000 C 
ATOM      8  N   UNL     1       8.126  -3.294   7.487  0.00  0.00    +0.000 NA
ATOM      9  C   UNL     1       6.598  -3.289   7.308  0.00  0.00    +0.000 C 
ATOM     10  C   UNL     1       6.449  -0.653   7.662  0.00  0.00    +0.000 C 
ATOM     11  N   UNL     1       2.978   0.661   8.542  0.00  0.00    +0.000 NA
ATOM     12  C   UNL     1       1.793   1.284   8.126  0.00  0.00    +0.000 A 
ATOM     13  C   UNL     1       1.025   2.051   9.024  0.00  0.00    +0.000 A 
ATOM     14  N   UNL     1       1.466   2.212  10.417  0.00  0.00    +0.000 N 
ATOM     15  N   UNL     1      -0.122   2.642   8.604  0.00  0.00    +0.000 NA
ATOM     16  C   UNL     1      -0.561   2.500   7.275  0.00  0.00    +0.000 A 
ATOM     17  N   UNL     1       0.172   1.752   6.368  0.00  0.00    +0.000 NA
ATOM     18  C   UNL     1       1.360   1.134   6.783  0.00  0.00    +0.000 A 
ATOM     19  H   UNL     1       8.639  -2.757   6.788  0.00  0.00    +0.000 HD
ATOM     20  H   UNL     1       2.329   1.768  10.733  0.00  0.00    +0.000 HD
ENDROOT
BRANCH   1  21
ATOM     21  N   UNL     1       1.670   0.184   4.501  0.00  0.00    +0.000 N 
ATOM     22  H   UNL     1       1.556   0.993   3.890  0.00  0.00    +0.000 HD
BRANCH  21  28
ATOM     23  C   UNL     1       0.961  -1.323   2.745  0.00  0.00    +0.000 A 
ATOM     24  C   UNL     1       0.822  -2.584   2.189  0.00  0.00    +0.000 A 
ATOM     25  C   UNL     1       0.869  -3.636   3.134  0.00  0.00    +0.000 A 
ATOM     26  C   UNL     1       1.351  -3.522   4.358  0.00  0.00    +0.000 A 
ATOM     27  C   UNL     1       1.530  -2.250   4.825  0.00  0.00    +0.000 A 
ATOM     28  C   UNL     1       1.375  -1.165   3.997  0.00  0.00    +0.000 A 
BRANCH  23  30
ATOM     29  C   UNL     1       0.961  -0.045   0.080  0.00  0.00    +0.000 C 
ATOM     30  S   UNL     1       0.357   0.085   1.782  0.00  0.00    +0.000 S 
ENDBRANCH  23  30
ENDBRANCH  21  28
ENDBRANCH   1  21
BRANCH  14  31
ATOM     31  C   UNL     1       0.665   3.012  11.355  0.00  0.00    +0.000 C 
BRANCH  31  32
ATOM     32  C   UNL     1       0.224   2.138  12.518  0.00  0.00    +0.000 C 
ATOM     33  C   UNL     1      -1.055   1.308  12.387  0.00  0.00    +0.000 C 
ATOM     34  C   UNL     1       0.309   0.614  12.411  0.00  0.00    +0.000 C 
ENDBRANCH  31  32
ENDBRANCH  14  31
TORSDOF 5
