REMARK  Name = 
REMARK  7 active torsions:
REMARK  status: ('A' for Active; 'I' for Inactive)
REMARK    1  A    between atoms: C_1  and  C_2
REMARK    2  A    between atoms: C_2  and  N_3
REMARK    3  A    between atoms: C_2  and  C_27
REMARK    4  A    between atoms: C_4  and  C_6
REMARK    5  A    between atoms: C_12  and  C_13
REMARK    6  A    between atoms: N_15  and  C_16
REMARK    7  A    between atoms: C_31  and  C_32
REMARK                            x       y       z     vdW  Elec       q    Type
REMARK                         _______ _______ _______ _____ _____    ______ ____
ROOT
ATOM      1  C   UNL     1      -1.526  -0.938   3.038  0.00  0.00    +0.000 A 
ATOM      2  C   UNL     1      -2.475  -0.118   3.591  0.00  0.00    +0.000 A 
ATOM      3  N   UNL     1      -3.701  -0.459   3.110  0.00  0.00    +0.000 N 
ATOM      4  C   UNL     1      -3.604  -1.499   2.210  0.00  0.00    +0.000 A 
ATOM      5  N   UNL     1      -4.491  -2.170   1.477  0.00  0.00    +0.000 NA
ATOM      6  C   UNL     1      -4.101  -3.144   0.667  0.00  0.00    +0.000 A 
ATOM      7  C   UNL     1      -2.744  -3.502   0.580  0.00  0.00    +0.000 A 
ATOM      8  N   UNL     1      -1.858  -2.827   1.310  0.00  0.00    +0.000 NA
ATOM      9  C   UNL     1      -2.243  -1.844   2.121  0.00  0.00    +0.000 A 
ATOM     10  H   UNL     1      -4.574  -0.006   3.380  0.00  0.00    +0.000 HD
ENDROOT
BRANCH   7  11
ATOM     11  C   UNL     1      -2.297  -4.635  -0.330  0.00  0.00    +0.000 A 
ATOM     12  N   UNL     1      -1.523  -5.662  -0.046  0.00  0.00    +0.000 NA
ATOM     13  N   UNL     1      -1.207  -6.324  -1.150  0.00  0.00    +0.000 N 
ATOM     14  C   UNL     1      -0.358  -7.522  -1.218  0.00  0.00    +0.000 C 
ATOM     15  C   UNL     1      -1.787  -5.722  -2.188  0.00  0.00    +0.000 A 
ATOM     16  C   UNL     1      -1.823  -5.950  -3.579  0.00  0.00    +0.000 A 
ATOM     17  C   UNL     1      -2.534  -5.117  -4.369  0.00  0.00    +0.000 A 
ATOM     18 CL   UNL     1      -2.585  -5.414  -6.123  0.00  0.00    +0.000 Cl
ATOM     19  C   UNL     1      -3.212  -4.056  -3.856  0.00  0.00    +0.000 A 
ATOM     20  C   UNL     1      -3.218  -3.792  -2.530  0.00  0.00    +0.000 A 
ATOM     21  F   UNL     1      -3.901  -2.752  -2.060  0.00  0.00    +0.000 F 
ATOM     22  C   UNL     1      -2.504  -4.614  -1.656  0.00  0.00    +0.000 A 
ENDBRANCH   7  11
BRANCH   1  24
ATOM     23  N   UNL     1       0.924  -1.000   2.201  0.00  0.00    +0.000 N 
ATOM     24  C   UNL     1      -0.032  -0.917   3.315  0.00  0.00    +0.000 C 
ATOM     25  O   UNL     1       0.392  -0.827   4.510  0.00  0.00    +0.000 OA
ATOM     26  H   UNL     1       1.927  -0.987   2.387  0.00  0.00    +0.000 HD
BRANCH  23  28
ATOM     27  C   UNL     1       0.941   0.080   0.011  0.00  0.00    +0.000 C 
ATOM     28  C   UNL     1       0.434  -1.104   0.819  0.00  0.00    +0.000 C 
BRANCH  28  29
ATOM     29  C   UNL     1      -1.086  -1.104   0.819  0.00  0.00    +0.000 C 
ATOM     30  O   UNL     1      -1.722  -2.096   0.342  0.00  0.00    +0.000 OA
ATOM     31  N   UNL     1      -1.821   0.043   1.371  0.00  0.00    +0.000 N 
ATOM     32  C   UNL     1      -3.014   0.285   2.312  0.00  0.00    +0.000 C 
ATOM     33  C   UNL     1      -3.199   1.636   1.601  0.00  0.00    +0.000 C 
ATOM     34  C   UNL     1      -1.702   1.574   1.256  0.00  0.00    +0.000 C 
BRANCH  33  35
ATOM     35  C   UNL     1      -3.812   2.836   2.304  0.00  0.00    +0.000 C 
ATOM     36  N   UNL     1      -4.320   3.831   2.888  0.00  0.00    +0.000 NA
ENDBRANCH  33  35
ENDBRANCH  28  29
ENDBRANCH  23  28
ENDBRANCH   1  24
TORSDOF 5
