REMARK  Name = 
REMARK  13 active torsions:
REMARK  status: ('A' for Active; 'I' for Inactive)
REMARK    1  A    between atoms: C_1  and  C_2
REMARK    2  A    between atoms: C_2  and  O_3
REMARK    3  A    between atoms: O_3  and  C_4
REMARK    4  A    between atoms: C_8  and  C_10
REMARK    5  A    between atoms: C_10  and  C_11
REMARK    6  A    between atoms: C_13  and  O_14
REMARK    7  A    between atoms: O_14  and  C_15
REMARK    8  A    between atoms: C_16  and  S_17
REMARK    9  A    between atoms: S_17  and  C_18
REMARK   10  A    between atoms: C_22  and  O_23
REMARK   11  A    between atoms: O_23  and  C_24
REMARK   12  A    between atoms: C_26  and  N_27
REMARK   13  A    between atoms: C_28  and  C_29
REMARK                            x       y       z     vdW  Elec       q    Type
REMARK                         _______ _______ _______ _____ _____    ______ ____
ROOT
ATOM      1  C   UNL     1       2.457   0.188   2.639  0.00  0.00    +0.000 A 
ATOM      2  N   UNL     1       2.989  -0.001   3.898  0.00  0.00    +0.000 NA
ATOM      3  C   UNL     1       4.290   0.128   4.109  0.00  0.00    +0.000 A 
ATOM      4  N   UNL     1       4.820  -0.074   5.466  0.00  0.00    +0.000 N 
ATOM      5  C   UNL     1       3.909  -0.415   6.568  0.00  0.00    +0.000 C 
ATOM      6  O   UNL     1       4.367  -0.590   7.740  0.00  0.00    +0.000 OA
ATOM      7  C   UNL     1       5.124   0.434   3.130  0.00  0.00    +0.000 A 
ATOM      8  C   UNL     1       4.660   0.638   1.845  0.00  0.00    +0.000 A 
ATOM      9  C   UNL     1       3.302   0.516   1.589  0.00  0.00    +0.000 A 
ATOM     10  H   UNL     1       5.820   0.022   5.642  0.00  0.00    +0.000 HD
ENDROOT
BRANCH   8  11
ATOM     11  N   UNL     1       5.594   0.978   0.761  0.00  0.00    +0.000 N 
ATOM     12  H   UNL     1       6.591   1.065   0.957  0.00  0.00    +0.000 HD
ATOM     13  H   UNL     1       5.244   1.127  -0.185  0.00  0.00    +0.000 HD
ENDBRANCH   8  11
BRANCH   9  14
ATOM     14  C   UNL     1       2.752   0.738   0.189  0.00  0.00    +0.000 C 
ATOM     15  N   UNL     1       2.296   0.922  -0.972  0.00  0.00    +0.000 NA
ENDBRANCH   9  14
BRANCH   1  16
ATOM     16  O   UNL     1       1.060   0.047   2.421  0.00  0.00    +0.000 OA
BRANCH  16  18
ATOM     17  C   UNL     1       1.094  -0.027   0.021  0.00  0.00    +0.000 C 
ATOM     18  C   UNL     1       0.587  -0.680   1.297  0.00  0.00    +0.000 C 
ENDBRANCH  16  18
ENDBRANCH   1  16
BRANCH   5  19
ATOM     19  C   UNL     1       2.418  -0.559   6.305  0.00  0.00    +0.000 C 
BRANCH  19  20
ATOM     20  C   UNL     1       1.870   0.753   5.767  0.00  0.00    +0.000 A 
ATOM     21  C   UNL     1       1.040   0.830   4.614  0.00  0.00    +0.000 A 
ATOM     22  C   UNL     1       0.897   2.059   3.949  0.00  0.00    +0.000 A 
ATOM     23  C   UNL     1       1.286   3.159   4.524  0.00  0.00    +0.000 A 
ATOM     24  C   UNL     1       1.839   3.122   5.811  0.00  0.00    +0.000 A 
ATOM     25  C   UNL     1       2.262   1.885   6.355  0.00  0.00    +0.000 A 
BRANCH  23  26
ATOM     26  S   UNL     1       1.115   4.740   3.659  0.00  0.00    +0.000 S 
ATOM     27  C   UNL     1       2.062   4.691   2.118  0.00  0.00    +0.000 C 
ATOM     28  O   UNL     1      -0.362   4.990   3.342  0.00  0.00    +0.000 OA
ATOM     29  O   UNL     1       1.644   5.868   4.548  0.00  0.00    +0.000 OA
ENDBRANCH  23  26
BRANCH  22  30
ATOM     30  O   UNL     1       0.328   2.100   2.649  0.00  0.00    +0.000 OA
ATOM     31  C   UNL     1      -0.098   0.899   2.022  0.00  0.00    +0.000 C 
ENDBRANCH  22  30
BRANCH  25  32
ATOM     32  O   UNL     1       3.089   1.850   7.509  0.00  0.00    +0.000 OA
ATOM     33  C   UNL     1       3.506   0.603   8.045  0.00  0.00    +0.000 C 
ENDBRANCH  25  32
ENDBRANCH  19  20
ENDBRANCH   5  19
TORSDOF 9
