REMARK  Name = 
REMARK  3 active torsions:
REMARK  status: ('A' for Active; 'I' for Inactive)
REMARK    1  A    between atoms: C_1  and  N_2
REMARK    2  A    between atoms: C_4  and  N_5
REMARK    3  A    between atoms: C_6  and  C_8
REMARK                            x       y       z     vdW  Elec       q    Type
REMARK                         _______ _______ _______ _____ _____    ______ ____
ROOT
ATOM      1  C   UNL     1       4.038   0.704  -0.158  0.00  0.00    +0.000 A 
ATOM      2  C   UNL     1       3.272   1.449   0.724  0.00  0.00    +0.000 A 
ATOM      3  C   UNL     1       3.334   2.827   0.716  0.00  0.00    +0.000 A 
ATOM      4  C   UNL     1       4.172   3.479  -0.184  0.00  0.00    +0.000 A 
ATOM      5  C   UNL     1       4.441   4.812  -0.425  0.00  0.00    +0.000 A 
ATOM      6  C   UNL     1       5.307   4.948  -1.447  0.00  0.00    +0.000 A 
ATOM      7  N   UNL     1       5.712   3.698  -1.874  0.00  0.00    +0.000 N 
ATOM      8  C   UNL     1       4.947   2.721  -1.074  0.00  0.00    +0.000 A 
ATOM      9  C   UNL     1       4.874   1.332  -1.055  0.00  0.00    +0.000 A 
ATOM     10  C   UNL     1       6.662   3.418  -2.865  0.00  0.00    +0.000 C 
ATOM     11  C   UNL     1       7.846   4.307  -3.135  0.00  0.00    +0.000 C 
ATOM     12  C   UNL     1       8.118   5.204  -1.931  0.00  0.00    +0.000 C 
ATOM     13  N   UNL     1       7.258   6.450  -1.881  0.00  0.00    +0.000 N 
ATOM     14  C   UNL     1       5.776   6.237  -2.070  0.00  0.00    +0.000 C 
ATOM     15  O   UNL     1       5.014   7.049  -2.682  0.00  0.00    +0.000 OA
ATOM     16  H   UNL     1       7.656   7.377  -1.728  0.00  0.00    +0.000 HD
ENDROOT
BRANCH   1  18
ATOM     17  N   UNL     1       2.655  -1.484  -0.093  0.00  0.00    +0.000 N 
ATOM     18  C   UNL     1       3.962  -0.814  -0.155  0.00  0.00    +0.000 C 
ATOM     19  O   UNL     1       5.028  -1.504  -0.206  0.00  0.00    +0.000 OA
ATOM     20  H   UNL     1       2.604  -2.503  -0.091  0.00  0.00    +0.000 HD
BRANCH  17  24
ATOM     21  C   UNL     1      -2.131  -0.046  -0.061  0.00  0.00    +0.000 C 
ATOM     22  N   UNL     1      -0.672  -0.075   0.059  0.00  0.00    +0.000 N 
ATOM     23  C   UNL     1       0.133  -1.167   0.027  0.00  0.00    +0.000 A 
ATOM     24  C   UNL     1       1.422  -0.686  -0.034  0.00  0.00    +0.000 A 
ATOM     25  C   UNL     1       1.330   0.708  -0.029  0.00  0.00    +0.000 A 
ATOM     26  N   UNL     1       0.026   1.096   0.024  0.00  0.00    +0.000 NA
ENDBRANCH  17  24
ENDBRANCH   1  18
TORSDOF 2
