REMARK  Name = 
REMARK  7 active torsions:
REMARK  status: ('A' for Active; 'I' for Inactive)
REMARK    1  A    between atoms: C_1  and  O_2
REMARK    2  A    between atoms: O_2  and  C_3
REMARK    3  A    between atoms: C_5  and  C_6
REMARK    4  A    between atoms: C_9  and  C_10
REMARK    5  A    between atoms: C_10  and  O_12
REMARK    6  A    between atoms: C_21  and  N_22
REMARK    7  A    between atoms: C_25  and  O_26
REMARK                            x       y       z     vdW  Elec       q    Type
REMARK                         _______ _______ _______ _____ _____    ______ ____
ROOT
ATOM      1  C   UNL     1       0.831   0.587   2.465  0.00  0.00    +0.000 A 
ATOM      2  N   UNL     1      -0.139   0.563   3.385  0.00  0.00    +0.000 NA
ATOM      3  C   UNL     1       0.189   0.176   4.627  0.00  0.00    +0.000 A 
ATOM      4  C   UNL     1       1.474  -0.192   4.976  0.00  0.00    +0.000 A 
ATOM      5  C   UNL     1       2.487  -0.144   4.016  0.00  0.00    +0.000 A 
ATOM      6  C   UNL     1       2.140   0.260   2.733  0.00  0.00    +0.000 A 
ENDROOT
BRANCH   3   7
ATOM      7  C   UNL     1      -0.895   0.141   5.691  0.00  0.00    +0.000 A 
ATOM      8  C   UNL     1      -2.006  -0.671   5.522  0.00  0.00    +0.000 A 
ATOM      9  C   UNL     1      -2.998  -0.689   6.519  0.00  0.00    +0.000 A 
ATOM     10  C   UNL     1      -4.284  -1.324   6.650  0.00  0.00    +0.000 A 
ATOM     11  C   UNL     1      -4.832  -0.847   7.818  0.00  0.00    +0.000 A 
ATOM     12  N   UNL     1      -3.961   0.006   8.442  0.00  0.00    +0.000 N 
ATOM     13  C   UNL     1      -2.838   0.140   7.660  0.00  0.00    +0.000 A 
ATOM     14  C   UNL     1      -1.720   0.961   7.849  0.00  0.00    +0.000 A 
ATOM     15  C   UNL     1      -0.771   0.933   6.847  0.00  0.00    +0.000 A 
ATOM     16 CL   UNL     1       0.638   1.952   6.995  0.00  0.00    +0.000 Cl
ATOM     17  H   UNL     1      -4.119   0.466   9.339  0.00  0.00    +0.000 HD
BRANCH  10  18
ATOM     18  C   UNL     1      -4.910  -2.322   5.690  0.00  0.00    +0.000 C 
ATOM     19  O   UNL     1      -6.060  -2.804   5.936  0.00  0.00    +0.000 OA
BRANCH  18  20
ATOM     20  O   UNL     1      -4.210  -2.716   4.519  0.00  0.00    +0.000 OA
ATOM     21  H   UNL     1      -4.622  -3.373   3.887  0.00  0.00    +0.000 HD
ENDBRANCH  18  20
ENDBRANCH  10  18
ENDBRANCH   3   7
BRANCH   6  22
ATOM     22  N   UNL     1       3.159   0.339   1.676  0.00  0.00    +0.000 N 
ATOM     23  C   UNL     1       3.587   1.583   0.859  0.00  0.00    +0.000 C 
ATOM     24  C   UNL     1       3.823   0.995  -0.557  0.00  0.00    +0.000 C 
ATOM     25  C   UNL     1       4.466  -0.383  -0.293  0.00  0.00    +0.000 C 
ATOM     26  C   UNL     1       4.044  -0.800   1.127  0.00  0.00    +0.000 C 
BRANCH  25  27
ATOM     27  O   UNL     1       5.880  -0.320  -0.409  0.00  0.00    +0.000 OA
ATOM     28  H   UNL     1       6.239   0.343   0.249  0.00  0.00    +0.000 HD
ENDBRANCH  25  27
ENDBRANCH   6  22
BRANCH   1  30
ATOM     29  C   UNL     1       0.961   0.066   0.064  0.00  0.00    +0.000 C 
ATOM     30  O   UNL     1       0.488   0.889   1.120  0.00  0.00    +0.000 OA
ENDBRANCH   1  30
TORSDOF 6
