REMARK  Name = 
REMARK  7 active torsions:
REMARK  status: ('A' for Active; 'I' for Inactive)
REMARK    1  A    between atoms: C_1  and  C_2
REMARK    2  A    between atoms: C_6  and  C_7
REMARK    3  A    between atoms: C_7  and  O_8
REMARK    4  A    between atoms: O_8  and  C_9
REMARK    5  A    between atoms: C_12  and  C_13
REMARK    6  A    between atoms: C_16  and  C_17
REMARK    7  A    between atoms: C_17  and  O_19
REMARK                            x       y       z     vdW  Elec       q    Type
REMARK                         _______ _______ _______ _____ _____    ______ ____
ROOT
ATOM      1  C   UNL     1       3.936   5.315   1.608  0.00  0.00    +0.000 A 
ATOM      2  C   UNL     1       5.010   5.807   2.333  0.00  0.00    +0.000 A 
ATOM      3  C   UNL     1       6.151   4.971   2.305  0.00  0.00    +0.000 A 
ATOM      4  C   UNL     1       6.138   3.697   1.957  0.00  0.00    +0.000 A 
ATOM      5  C   UNL     1       5.021   3.256   1.304  0.00  0.00    +0.000 A 
ATOM      6  C   UNL     1       3.914   4.060   1.177  0.00  0.00    +0.000 A 
ENDROOT
BRANCH   4   7
ATOM      7  C   UNL     1       7.303   2.771   2.266  0.00  0.00    +0.000 A 
ATOM      8  C   UNL     1       7.674   2.582   3.587  0.00  0.00    +0.000 A 
ATOM      9  C   UNL     1       8.933   1.956   3.745  0.00  0.00    +0.000 A 
ATOM     10  C   UNL     1       9.579   2.064   5.028  0.00  0.00    +0.000 A 
ATOM     11  C   UNL     1      10.862   1.445   5.243  0.00  0.00    +0.000 A 
ATOM     12  N   UNL     1      10.625   0.431   3.084  0.00  0.00    +0.000 N 
ATOM     13  C   UNL     1       9.558   1.280   2.798  0.00  0.00    +0.000 A 
ATOM     14  C   UNL     1       9.100   1.457   1.522  0.00  0.00    +0.000 A 
ATOM     15  C   UNL     1       7.949   2.166   1.276  0.00  0.00    +0.000 A 
ATOM     16 CL   UNL     1       7.318   2.275  -0.385  0.00  0.00    +0.000 Cl
ATOM     17  H   UNL     1      11.087  -0.078   2.331  0.00  0.00    +0.000 HD
BRANCH  10  18
ATOM     18  C   UNL     1       8.906   2.830   6.155  0.00  0.00    +0.000 C 
ATOM     19  O   UNL     1       9.476   2.925   7.287  0.00  0.00    +0.000 OA
BRANCH  18  20
ATOM     20  O   UNL     1       7.642   3.440   5.944  0.00  0.00    +0.000 OA
ATOM     21  H   UNL     1       7.199   3.945   6.685  0.00  0.00    +0.000 HD
ENDBRANCH  18  20
ENDBRANCH  10  18
ENDBRANCH   4   7
BRANCH   1  22
ATOM     22  O   UNL     1       2.849   6.182   1.321  0.00  0.00    +0.000 OA
BRANCH  22  23
ATOM     23  C   UNL     1       1.515   5.727   1.487  0.00  0.00    +0.000 C 
BRANCH  23  29
ATOM     24  C   UNL     1       0.931  -0.071  -0.015  0.00  0.00    +0.000 C 
ATOM     25  C   UNL     1       0.424   1.266  -0.531  0.00  0.00    +0.000 C 
ATOM     26  O   UNL     1      -0.306   1.310  -1.570  0.00  0.00    +0.000 OA
ATOM     27  N   UNL     1       0.779   2.508   0.171  0.00  0.00    +0.000 N 
ATOM     28  C   UNL     1      -0.038   3.726   0.634  0.00  0.00    +0.000 C 
ATOM     29  C   UNL     1       1.274   4.525   0.587  0.00  0.00    +0.000 C 
ATOM     30  C   UNL     1       2.007   3.191   0.801  0.00  0.00    +0.000 C 
ENDBRANCH  23  29
ENDBRANCH  22  23
ENDBRANCH   1  22
TORSDOF 6
