REMARK  Name = 
REMARK  3 active torsions:
REMARK  status: ('A' for Active; 'I' for Inactive)
REMARK    1  A    between atoms: C_2  and  C_19
REMARK    2  A    between atoms: N_3  and  C_4
REMARK    3  A    between atoms: C_10  and  C_11
REMARK                            x       y       z     vdW  Elec       q    Type
REMARK                         _______ _______ _______ _____ _____    ______ ____
ROOT
ATOM      1  C   UNL     1       4.557   0.436  -1.134  0.00  0.00    +0.000 A 
ATOM      2  N   UNL     1       5.239  -0.637  -0.658  0.00  0.00    +0.000 NA
ATOM      3  C   UNL     1       6.580  -0.652  -0.684  0.00  0.00    +0.000 A 
ATOM      4  N   UNL     1       7.281   0.412  -1.087  0.00  0.00    +0.000 NA
ATOM      5  C   UNL     1       6.650   1.499  -1.591  0.00  0.00    +0.000 A 
ATOM      6  O   UNL     1       7.160   2.680  -2.135  0.00  0.00    +0.000 OA
ATOM      7  C   UNL     1       6.108   3.501  -2.477  0.00  0.00    +0.000 A 
ATOM      8  C   UNL     1       4.917   2.801  -2.158  0.00  0.00    +0.000 A 
ATOM      9  C   UNL     1       5.268   1.555  -1.631  0.00  0.00    +0.000 A 
ENDROOT
BRANCH   7  10
ATOM     10  C   UNL     1       6.206   4.892  -3.081  0.00  0.00    +0.000 A 
ATOM     11  C   UNL     1       6.846   5.056  -4.312  0.00  0.00    +0.000 A 
ATOM     12  C   UNL     1       6.962   6.346  -4.812  0.00  0.00    +0.000 A 
ATOM     13  C   UNL     1       6.443   7.394  -4.086  0.00  0.00    +0.000 A 
ATOM     14  N   UNL     1       5.849   7.246  -2.898  0.00  0.00    +0.000 NA
ATOM     15  C   UNL     1       5.736   6.002  -2.407  0.00  0.00    +0.000 A 
ENDBRANCH   7  10
BRANCH   1  18
ATOM     16  O   UNL     1       1.081  -0.022   0.054  0.00  0.00    +0.000 OA
ATOM     17  C   UNL     1       2.352  -0.022   0.054  0.00  0.00    +0.000 C 
ATOM     18  N   UNL     1       3.087   0.436  -1.134  0.00  0.00    +0.000 N 
ATOM     19  H   UNL     1       2.577   0.754  -1.958  0.00  0.00    +0.000 HD
BRANCH  17  20
ATOM     20  C   UNL     1       3.112  -0.495   1.282  0.00  0.00    +0.000 C 
ATOM     21  C   UNL     1       3.465  -2.010   1.192  0.00  0.00    +0.000 C 
ATOM     22  C   UNL     1       4.543  -2.208   2.269  0.00  0.00    +0.000 C 
ATOM     23  C   UNL     1       5.324  -0.827   2.325  0.00  0.00    +0.000 C 
ATOM     24  C   UNL     1       4.517   0.126   1.422  0.00  0.00    +0.000 C 
ENDBRANCH  17  20
ENDBRANCH   1  18
TORSDOF 3
