REMARK  Name = 
REMARK  9 active torsions:
REMARK  status: ('A' for Active; 'I' for Inactive)
REMARK    1  A    between atoms: C_1  and  N_2
REMARK    2  A    between atoms: N_2  and  S_3
REMARK    3  A    between atoms: S_3  and  C_4
REMARK    4  A    between atoms: N_6  and  C_7
REMARK    5  A    between atoms: C_10  and  C_11
REMARK    6  A    between atoms: C_14  and  C_15
REMARK    7  A    between atoms: C_19  and  O_20
REMARK    8  A    between atoms: O_20  and  C_21
REMARK    9  A    between atoms: C_25  and  O_26
REMARK                            x       y       z     vdW  Elec       q    Type
REMARK                         _______ _______ _______ _____ _____    ______ ____
ROOT
ATOM      1  C   UNL     1     -11.533   0.000   3.145  0.00  0.00    +0.000 A 
ATOM      2  N   UNL     1     -12.403  -0.010   2.073  0.00  0.00    +0.000 NA
ATOM      3  C   UNL     1     -13.780   0.085   2.300  0.00  0.00    +0.000 A 
ATOM      4  N   UNL     1     -14.951   0.104   1.425  0.00  0.00    +0.000 NA
ATOM      5  C   UNL     1     -16.009   0.209   2.175  0.00  0.00    +0.000 A 
ATOM      6  N   UNL     1     -15.641   0.264   3.523  0.00  0.00    +0.000 N 
ATOM      7  C   UNL     1     -14.266   0.188   3.615  0.00  0.00    +0.000 A 
ATOM      8  C   UNL     1     -13.374   0.196   4.682  0.00  0.00    +0.000 A 
ATOM      9  C   UNL     1     -12.021   0.097   4.448  0.00  0.00    +0.000 A 
ATOM     10 CL   UNL     1     -10.886   0.093   5.819  0.00  0.00    +0.000 Cl
ATOM     11  H   UNL     1     -16.284   0.346   4.310  0.00  0.00    +0.000 HD
ENDROOT
BRANCH   1  15
ATOM     12  C   UNL     1      -7.370  -0.392   2.270  0.00  0.00    +0.000 A 
ATOM     13  C   UNL     1      -8.083   0.630   1.666  0.00  0.00    +0.000 A 
ATOM     14  C   UNL     1      -9.387   0.806   2.187  0.00  0.00    +0.000 A 
ATOM     15  C   UNL     1     -10.035  -0.095   2.903  0.00  0.00    +0.000 A 
ATOM     16  C   UNL     1      -9.286  -1.118   3.416  0.00  0.00    +0.000 A 
ATOM     17  C   UNL     1      -7.970  -1.279   3.056  0.00  0.00    +0.000 A 
BRANCH  12  21
ATOM     18  C   UNL     1      -3.198  -0.600   1.380  0.00  0.00    +0.000 A 
ATOM     19  C   UNL     1      -3.710   0.579   1.896  0.00  0.00    +0.000 A 
ATOM     20  C   UNL     1      -5.043   0.472   2.358  0.00  0.00    +0.000 A 
ATOM     21  C   UNL     1      -5.873  -0.501   2.029  0.00  0.00    +0.000 A 
ATOM     22  C   UNL     1      -5.314  -1.612   1.461  0.00  0.00    +0.000 A 
ATOM     23  C   UNL     1      -3.988  -1.630   1.101  0.00  0.00    +0.000 A 
BRANCH  18  27
ATOM     24  S   UNL     1      -1.228  -1.336  -0.212  0.00  0.00    +0.000 S 
ATOM     25  C   UNL     1      -1.831  -0.353  -1.607  0.00  0.00    +0.000 C 
ATOM     26  O   UNL     1      -1.738  -2.773  -0.342  0.00  0.00    +0.000 OA
ATOM     27  N   UNL     1      -1.753  -0.713   1.136  0.00  0.00    +0.000 NA
BRANCH  24  29
ATOM     28  C   UNL     1       1.022   0.044  -0.087  0.00  0.00    +0.000 C 
ATOM     29  N   UNL     1       0.532  -1.336  -0.212  0.00  0.00    +0.000 NA
ATOM     30  H   UNL     1       0.872  -1.740  -1.085  0.00  0.00    +0.000 HD
ENDBRANCH  24  29
ENDBRANCH  18  27
ENDBRANCH  12  21
ENDBRANCH   1  15
BRANCH   5  31
ATOM     31  O   UNL     1     -17.344   0.261   1.695  0.00  0.00    +0.000 OA
BRANCH  31  32
ATOM     32  C   UNL     1     -17.599   0.197   0.299  0.00  0.00    +0.000 C 
ATOM     33  C   UNL     1     -17.126  -0.956  -0.201  0.00  0.00    +0.000 C 
ATOM     34  O   UNL     1     -15.734  -0.787  -0.588  0.00  0.00    +0.000 OA
ATOM     35  C   UNL     1     -15.528   0.720  -0.832  0.00  0.00    +0.000 C 
ATOM     36  C   UNL     1     -15.446   0.977  -2.322  0.00  0.00    +0.000 C 
ATOM     37  C   UNL     1     -16.725   1.065  -2.781  0.00  0.00    +0.000 C 
ATOM     38  O   UNL     1     -17.587   1.616  -1.747  0.00  0.00    +0.000 OA
ATOM     39  C   UNL     1     -16.889   1.337  -0.402  0.00  0.00    +0.000 C 
BRANCH  36  40
ATOM     40  O   UNL     1     -14.742  -0.067  -2.979  0.00  0.00    +0.000 OA
ATOM     41  H   UNL     1     -15.210  -0.936  -2.820  0.00  0.00    +0.000 HD
ENDBRANCH  36  40
ENDBRANCH  31  32
ENDBRANCH   5  31
TORSDOF 7
