REMARK  Name = 
REMARK  6 active torsions:
REMARK  status: ('A' for Active; 'I' for Inactive)
REMARK    1  A    between atoms: C_1  and  O_2
REMARK    2  A    between atoms: O_2  and  C_3
REMARK    3  A    between atoms: C_6  and  C_7
REMARK    4  A    between atoms: C_14  and  C_15
REMARK    5  A    between atoms: C_17  and  C_18
REMARK    6  A    between atoms: C_20  and  C_21
REMARK                            x       y       z     vdW  Elec       q    Type
REMARK                         _______ _______ _______ _____ _____    ______ ____
ROOT
ATOM      1  C   UNL     1       1.782   3.684   5.149  0.00  0.00    +0.000 A 
ATOM      2  C   UNL     1       2.756   4.656   5.335  0.00  0.00    +0.000 A 
ATOM      3  C   UNL     1       3.127   5.084   6.602  0.00  0.00    +0.000 A 
ATOM      4  C   UNL     1       2.477   4.574   7.721  0.00  0.00    +0.000 A 
ATOM      5  C   UNL     1       1.499   3.630   7.510  0.00  0.00    +0.000 A 
ATOM      6  C   UNL     1       1.144   3.135   6.254  0.00  0.00    +0.000 A 
ATOM      7  C   UNL     1       0.083   2.146   6.455  0.00  0.00    +0.000 C 
ATOM      8  C   UNL     1      -0.577   1.310   5.635  0.00  0.00    +0.000 C 
ATOM      9  C   UNL     1      -0.170   2.142   7.928  0.00  0.00    +0.000 C 
ATOM     10  O   UNL     1      -0.991   1.472   8.557  0.00  0.00    +0.000 OA
ATOM     11  N   UNL     1       0.698   3.023   8.483  0.00  0.00    +0.000 N 
ATOM     12  H   UNL     1       0.759   3.220   9.482  0.00  0.00    +0.000 HD
ENDROOT
BRANCH   8  13
ATOM     13  C   UNL     1      -0.249   1.286   4.151  0.00  0.00    +0.000 A 
ATOM     14  N   UNL     1       0.972   0.988   3.595  0.00  0.00    +0.000 N 
ATOM     15  C   UNL     1       0.909   1.071   2.235  0.00  0.00    +0.000 A 
ATOM     16  C   UNL     1       2.108   0.829   1.385  0.00  0.00    +0.000 C 
ATOM     17  C   UNL     1      -0.380   1.407   1.903  0.00  0.00    +0.000 A 
ATOM     18  C   UNL     1      -1.118   1.556   3.123  0.00  0.00    +0.000 A 
ATOM     19  C   UNL     1      -2.582   1.899   3.237  0.00  0.00    +0.000 C 
ATOM     20  H   UNL     1       1.808   0.739   4.124  0.00  0.00    +0.000 HD
ENDBRANCH   8  13
BRANCH   1  24
ATOM     21  C   UNL     1       0.962   2.043   1.405  0.00  0.00    +0.000 A 
ATOM     22  N   UNL     1      -0.078   2.576   2.058  0.00  0.00    +0.000 NA
ATOM     23  C   UNL     1       0.234   3.084   3.259  0.00  0.00    +0.000 A 
ATOM     24  C   UNL     1       1.490   3.096   3.778  0.00  0.00    +0.000 A 
ATOM     25  C   UNL     1       2.482   2.549   3.000  0.00  0.00    +0.000 A 
ATOM     26  N   UNL     1       2.244   1.998   1.818  0.00  0.00    +0.000 NA
BRANCH  21  28
ATOM     27  C   UNL     1       1.092   0.003   0.038  0.00  0.00    +0.000 C 
ATOM     28  O   UNL     1       0.619   1.328   0.227  0.00  0.00    +0.000 OA
ENDBRANCH  21  28
ENDBRANCH   1  24
TORSDOF 3
