REMARK  Name = 
REMARK  5 active torsions:
REMARK  status: ('A' for Active; 'I' for Inactive)
REMARK    1  A    between atoms: C_1  and  C_2
REMARK    2  A    between atoms: C_2  and  C_3
REMARK    3  A    between atoms: C_10  and  C_11
REMARK    4  A    between atoms: N_17  and  C_18
REMARK    5  A    between atoms: C_18  and  C_19
REMARK                            x       y       z     vdW  Elec       q    Type
REMARK                         _______ _______ _______ _____ _____    ______ ____
ROOT
ATOM      1  C   UNL     1       0.919  -2.496  -0.197  0.00  0.00    +0.000 A 
ATOM      2  N   UNL     1       1.747  -2.526   0.870  0.00  0.00    +0.000 NA
ATOM      3  C   UNL     1       2.078  -3.693   1.481  0.00  0.00    +0.000 A 
ATOM      4  C   UNL     1       1.587  -4.880   1.059  0.00  0.00    +0.000 A 
ATOM      5  C   UNL     1       0.726  -4.922  -0.039  0.00  0.00    +0.000 A 
ATOM      6  C   UNL     1       0.379  -3.703  -0.687  0.00  0.00    +0.000 A 
ATOM      7  N   UNL     1      -0.441  -4.031  -1.685  0.00  0.00    +0.000 NA
ATOM      8  C   UNL     1      -0.610  -5.346  -1.679  0.00  0.00    +0.000 A 
ATOM      9  N   UNL     1       0.082  -5.896  -0.703  0.00  0.00    +0.000 N 
ENDROOT
BRANCH   8  10
ATOM     10  C   UNL     1      -1.479  -6.111  -2.663  0.00  0.00    +0.000 A 
ATOM     11  N   UNL     1      -1.398  -6.018  -4.443  0.00  0.00    +0.000 NA
ATOM     12  O   UNL     1      -2.768  -7.010  -4.820  0.00  0.00    +0.000 OA
ATOM     13  N   UNL     1      -3.235  -7.373  -3.595  0.00  0.00    +0.000 NA
ATOM     14  C   UNL     1      -2.585  -6.928  -2.471  0.00  0.00    +0.000 A 
ATOM     15  N   UNL     1      -3.040  -7.300  -1.124  0.00  0.00    +0.000 N 
ATOM     16  H   UNL     1      -3.855  -7.901  -1.008  0.00  0.00    +0.000 HD
ATOM     17  H   UNL     1      -2.540  -6.956  -0.304  0.00  0.00    +0.000 HD
ENDBRANCH   8  10
BRANCH   1  19
ATOM     18  C   UNL     1       0.919  -0.018  -0.056  0.00  0.00    +0.000 C 
ATOM     19  C   UNL     1       0.413  -1.216  -0.842  0.00  0.00    +0.000 C 
ENDBRANCH   1  19
BRANCH   9  20
ATOM     20  C   UNL     1       0.139  -7.331  -0.392  0.00  0.00    +0.000 C 
ATOM     21  C   UNL     1      -1.258  -7.836  -0.070  0.00  0.00    +0.000 C 
ENDBRANCH   9  20
TORSDOF 3
