REMARK  Name = 
REMARK  6 active torsions:
REMARK  status: ('A' for Active; 'I' for Inactive)
REMARK    1  A    between atoms: C_1  and  C_2
REMARK    2  A    between atoms: C_2  and  O_3
REMARK    3  A    between atoms: O_3  and  C_4
REMARK    4  A    between atoms: C_11  and  C_12
REMARK    5  A    between atoms: N_18  and  C_19
REMARK    6  A    between atoms: C_19  and  C_20
REMARK                            x       y       z     vdW  Elec       q    Type
REMARK                         _______ _______ _______ _____ _____    ______ ____
ROOT
ATOM      1  C   UNL     1       2.381  -1.583   2.216  0.00  0.00    +0.000 A 
ATOM      2  N   UNL     1       3.202  -0.681   1.635  0.00  0.00    +0.000 NA
ATOM      3  C   UNL     1       4.543  -0.692   1.858  0.00  0.00    +0.000 A 
ATOM      4  C   UNL     1       5.118  -1.598   2.681  0.00  0.00    +0.000 A 
ATOM      5  C   UNL     1       4.327  -2.558   3.315  0.00  0.00    +0.000 A 
ATOM      6  C   UNL     1       2.924  -2.556   3.081  0.00  0.00    +0.000 A 
ATOM      7  N   UNL     1       2.425  -3.562   3.799  0.00  0.00    +0.000 NA
ATOM      8  C   UNL     1       3.418  -4.159   4.439  0.00  0.00    +0.000 A 
ATOM      9  N   UNL     1       4.565  -3.573   4.161  0.00  0.00    +0.000 N 
ENDROOT
BRANCH   8  10
ATOM     10  C   UNL     1       3.258  -5.353   5.366  0.00  0.00    +0.000 A 
ATOM     11  N   UNL     1       2.780  -7.018   4.939  0.00  0.00    +0.000 NA
ATOM     12  O   UNL     1       3.002  -7.760   6.491  0.00  0.00    +0.000 OA
ATOM     13  N   UNL     1       3.426  -6.729   7.270  0.00  0.00    +0.000 NA
ATOM     14  C   UNL     1       3.572  -5.483   6.712  0.00  0.00    +0.000 A 
ATOM     15  N   UNL     1       4.039  -4.337   7.505  0.00  0.00    +0.000 N 
ATOM     16  H   UNL     1       4.263  -4.458   8.493  0.00  0.00    +0.000 HD
ATOM     17  H   UNL     1       4.138  -3.421   7.068  0.00  0.00    +0.000 HD
ENDBRANCH   8  10
BRANCH   9  18
ATOM     18  C   UNL     1       5.881  -3.964   4.688  0.00  0.00    +0.000 C 
ATOM     19  C   UNL     1       5.870  -3.862   6.205  0.00  0.00    +0.000 C 
ENDBRANCH   9  18
BRANCH   1  20
ATOM     20  O   UNL     1       0.985  -1.552   1.958  0.00  0.00    +0.000 OA
BRANCH  20  22
ATOM     21  C   UNL     1       1.018  -0.070   0.069  0.00  0.00    +0.000 C 
ATOM     22  C   UNL     1       0.512  -1.389   0.629  0.00  0.00    +0.000 C 
ENDBRANCH  20  22
ENDBRANCH   1  20
TORSDOF 4
