REMARK  Name = 
REMARK  11 active torsions:
REMARK  status: ('A' for Active; 'I' for Inactive)
REMARK    1  A    between atoms: C_1  and  O_2
REMARK    2  A    between atoms: O_2  and  C_3
REMARK    3  A    between atoms: C_3  and  C_4
REMARK    4  A    between atoms: C_4  and  C_5
REMARK    5  A    between atoms: C_4  and  N_8
REMARK    6  A    between atoms: N_8  and  C_9
REMARK    7  A    between atoms: N_8  and  C_10
REMARK    8  A    between atoms: C_10  and  C_11
REMARK    9  A    between atoms: N_15  and  C_16
REMARK   10  A    between atoms: C_29  and  O_30
REMARK   11  A    between atoms: O_30  and  C_31
REMARK                            x       y       z     vdW  Elec       q    Type
REMARK                         _______ _______ _______ _____ _____    ______ ____
ROOT
ATOM      1  C   UNL     1       2.874   3.558   0.493  0.00  0.00    +0.000 A 
ATOM      2  C   UNL     1       2.816   2.242   0.856  0.00  0.00    +0.000 A 
ATOM      3  C   UNL     1       3.183   1.856   2.165  0.00  0.00    +0.000 A 
ATOM      4  C   UNL     1       3.156   0.513   2.637  0.00  0.00    +0.000 A 
ATOM      5  N   UNL     1       2.755  -0.559   1.715  0.00  0.00    +0.000 N 
ATOM      6  N   UNL     1       3.478   0.206   3.870  0.00  0.00    +0.000 NA
ATOM      7  C   UNL     1       3.868   1.230   4.690  0.00  0.00    +0.000 A 
ATOM      8  N   UNL     1       3.958   2.493   4.377  0.00  0.00    +0.000 NA
ATOM      9  C   UNL     1       3.611   2.832   3.094  0.00  0.00    +0.000 A 
ATOM     10  C   UNL     1       3.685   4.181   2.679  0.00  0.00    +0.000 A 
ATOM     11  C   UNL     1       3.312   4.532   1.412  0.00  0.00    +0.000 A 
ATOM     12  H   UNL     1       2.502  -0.337   0.752  0.00  0.00    +0.000 HD
ENDROOT
BRANCH   5  13
ATOM     13  C   UNL     1       2.720  -1.954   2.180  0.00  0.00    +0.000 A 
ATOM     14  C   UNL     1       3.525  -2.912   1.602  0.00  0.00    +0.000 A 
ATOM     15  C   UNL     1       3.521  -4.224   2.058  0.00  0.00    +0.000 A 
ATOM     16  C   UNL     1       2.686  -4.568   3.119  0.00  0.00    +0.000 A 
ATOM     17  C   UNL     1       1.880  -3.606   3.698  0.00  0.00    +0.000 A 
ATOM     18 CL   UNL     1       0.871  -4.013   5.044  0.00  0.00    +0.000 Cl
ATOM     19  C   UNL     1       1.904  -2.315   3.221  0.00  0.00    +0.000 A 
ATOM     20  F   UNL     1       1.130  -1.379   3.808  0.00  0.00    +0.000 F 
ENDBRANCH   5  13
BRANCH  11  21
ATOM     21  O   UNL     1       3.365   5.895   1.017  0.00  0.00    +0.000 OA
ATOM     22  C   UNL     1       2.979   6.269  -0.298  0.00  0.00    +0.000 C 
ENDBRANCH  11  21
BRANCH   1  23
ATOM     23  C   UNL     1       2.368   3.965  -0.881  0.00  0.00    +0.000 C 
BRANCH  23  24
ATOM     24  N   UNL     1       0.897   3.965  -0.881  0.00  0.00    +0.000 NA
ATOM     25  C   UNL     1       0.407   4.919   0.124  0.00  0.00    +0.000 C 
BRANCH  24  26
ATOM     26  C   UNL     1       0.407   2.617  -0.557  0.00  0.00    +0.000 C 
BRANCH  26  27
ATOM     27  C   UNL     1       0.914   2.210   0.817  0.00  0.00    +0.000 C 
ATOM     28  N   UNL     1       1.759   3.131   1.591  0.00  0.00    +0.000 N 
ATOM     29  O   UNL     1       0.607   1.074   1.297  0.00  0.00    +0.000 OA
ATOM     30  H   UNL     1       2.099   2.858   2.513  0.00  0.00    +0.000 HD
ATOM     31  H   UNL     1       2.006   4.043   1.206  0.00  0.00    +0.000 HD
ENDBRANCH  26  27
BRANCH  26  32
ATOM     32  C   UNL     1       0.914   1.630  -1.596  0.00  0.00    +0.000 C 
BRANCH  32  34
ATOM     33  C   UNL     1       0.914  -0.051   0.000  0.00  0.00    +0.000 C 
ATOM     34  O   UNL     1       0.441   0.329  -1.283  0.00  0.00    +0.000 OA
ENDBRANCH  32  34
ENDBRANCH  26  32
ENDBRANCH  24  26
ENDBRANCH  23  24
ENDBRANCH   1  23
TORSDOF 8
