REMARK  Name = 
REMARK  7 active torsions:
REMARK  status: ('A' for Active; 'I' for Inactive)
REMARK    1  A    between atoms: C_1  and  C_2
REMARK    2  A    between atoms: C_7  and  C_8
REMARK    3  A    between atoms: C_8  and  O_10
REMARK    4  A    between atoms: C_13  and  C_14
REMARK    5  A    between atoms: C_17  and  C_18
REMARK    6  A    between atoms: C_18  and  C_19
REMARK    7  A    between atoms: C_19  and  O_20
REMARK                            x       y       z     vdW  Elec       q    Type
REMARK                         _______ _______ _______ _____ _____    ______ ____
ROOT
ATOM      1  C   UNL     1       0.953   0.083  -0.031  0.00  0.00    +0.000 C 
ATOM      2  C   UNL     1       0.446   0.516  -1.397  0.00  0.00    +0.000 A 
ATOM      3  C   UNL     1       0.543   1.845  -1.746  0.00  0.00    +0.000 A 
ATOM      4  C   UNL     1       0.167   2.258  -3.019  0.00  0.00    +0.000 A 
ATOM      5  N   UNL     1       0.142   3.483  -3.654  0.00  0.00    +0.000 N 
ATOM      6  C   UNL     1      -0.339   3.309  -4.955  0.00  0.00    +0.000 A 
ATOM      7  C   UNL     1      -0.613   2.056  -5.169  0.00  0.00    +0.000 A 
ATOM      8  C   UNL     1      -0.307   1.314  -3.947  0.00  0.00    +0.000 A 
ATOM      9  C   UNL     1      -0.397  -0.033  -3.584  0.00  0.00    +0.000 A 
ATOM     10  C   UNL     1      -0.018  -0.425  -2.315  0.00  0.00    +0.000 A 
ATOM     11  H   UNL     1       0.427   4.370  -3.240  0.00  0.00    +0.000 HD
ENDROOT
BRANCH  10  12
ATOM     12  C   UNL     1      -0.106  -1.890  -1.918  0.00  0.00    +0.000 A 
ATOM     13  C   UNL     1      -0.937  -2.255  -0.822  0.00  0.00    +0.000 A 
ATOM     14  C   UNL     1      -0.814  -3.536  -0.260  0.00  0.00    +0.000 A 
ATOM     15  C   UNL     1      -0.157  -4.463  -0.893  0.00  0.00    +0.000 A 
ATOM     16  C   UNL     1       0.419  -4.189  -2.141  0.00  0.00    +0.000 A 
ATOM     17  C   UNL     1       0.560  -2.846  -2.567  0.00  0.00    +0.000 A 
BRANCH  15  18
ATOM     18  C   UNL     1      -0.014  -5.846  -0.278  0.00  0.00    +0.000 C 
ATOM     19  C   UNL     1       0.540  -7.046  -1.048  0.00  0.00    +0.000 C 
ATOM     20  C   UNL     1       1.409  -6.338  -0.005  0.00  0.00    +0.000 C 
BRANCH  18  21
ATOM     21  C   UNL     1      -1.300  -5.635   0.505  0.00  0.00    +0.000 C 
BRANCH  21  22
ATOM     22  O   UNL     1      -1.156  -4.507   1.356  0.00  0.00    +0.000 OA
ATOM     23  H   UNL     1      -0.401  -4.663   1.992  0.00  0.00    +0.000 HD
ENDBRANCH  21  22
ENDBRANCH  18  21
ENDBRANCH  15  18
ENDBRANCH  10  12
BRANCH   7  24
ATOM     24  C   UNL     1      -1.156   1.466  -6.460  0.00  0.00    +0.000 C 
ATOM     25  O   UNL     1      -1.382   2.221  -7.458  0.00  0.00    +0.000 OA
BRANCH  24  26
ATOM     26  O   UNL     1      -1.411   0.072  -6.553  0.00  0.00    +0.000 OA
ATOM     27  H   UNL     1      -1.769  -0.315  -7.403  0.00  0.00    +0.000 HD
ENDBRANCH  24  26
ENDBRANCH   7  24
TORSDOF 6
