
 OpenBabel03132512093D

 80 84  0  0  0  0  0  0  0  0999 V2000
    1.0588    0.0733   -0.0342 C   0  0  0  0  0  0  0  0  0  0  0  0
    0.5522   -0.6267    1.2163 C   0  0  0  0  0  0  0  0  0  0  0  0
    1.0588    0.1062    2.4478 C   0  0  0  0  0  0  0  0  0  0  0  0
   -0.9678   -0.6267    1.2163 C   0  0  0  0  0  0  0  0  0  0  0  0
    1.0588   -2.0597    1.2353 C   0  0  0  0  0  0  0  0  0  0  0  0
    0.2743   -3.1693    1.2399 C   0  0  0  0  0  0  0  0  0  0  0  0
    1.1851   -4.2378    1.2419 C   0  0  0  0  0  0  0  0  0  0  0  0
    0.7828   -5.6517    1.2397 N   0  0  0  0  0  0  0  0  0  0  0  0
    1.8061   -6.7071    1.2421 C   0  0  0  0  0  0  0  0  0  0  0  0
    1.4583   -7.9294    1.2402 O   0  0  0  0  0  0  0  0  0  0  0  0
    3.2317   -6.3485    1.2467 N   0  0  0  0  0  0  0  0  0  0  0  0
    3.6340   -4.9347    1.2489 C   0  0  0  0  0  0  0  0  0  0  0  0
    4.4581   -4.6443    2.4927 C   0  0  0  0  0  0  0  0  0  0  0  0
    5.0209   -5.6925    3.2019 C   0  0  0  0  0  0  0  0  0  0  0  0
    5.4740   -5.3330    4.4932 C   0  0  0  0  0  0  0  0  0  0  0  0
    5.6976   -4.0936    4.8904 C   0  0  0  0  0  0  0  0  0  0  0  0
    6.4949   -3.7869    6.1476 C   0  0  0  0  0  0  0  0  0  0  0  0
    6.0667   -3.1157    7.2348 C   0  0  0  0  0  0  0  0  0  0  0  0
    7.1737   -3.0465    8.1095 C   0  0  0  0  0  0  0  0  0  0  0  0
    7.1570   -2.3905    9.4249 N   0  0  0  0  0  0  0  0  0  0  0  0
    8.3699   -2.3779   10.2554 C   0  0  0  0  0  0  0  0  0  0  0  0
    8.3554   -1.8108   11.3926 O   0  0  0  0  0  0  0  0  0  0  0  0
    9.6412   -3.0432    9.7540 C   0  0  0  0  0  0  0  0  0  0  0  0
   10.3466   -3.8589   10.6233 C   0  0  0  0  0  0  0  0  0  0  0  0
   11.6397   -4.2036   10.1640 C   0  0  0  0  0  0  0  0  0  0  0  0
   12.0422   -4.0982    8.9106 C   0  0  0  0  0  0  0  0  0  0  0  0
   13.2185   -4.7436    8.4457 O   0  0  0  0  0  0  0  0  0  0  0  0
   13.6161   -4.6043    7.0897 C   0  0  0  0  0  0  0  0  0  0  0  0
   12.5203   -5.1403    6.1828 C   0  0  0  0  0  0  0  0  0  0  0  0
   11.2814   -4.3825    6.4105 N   0  0  0  0  0  0  0  0  0  0  0  0
   10.5640   -5.6693    6.4644 C   0  0  0  0  0  0  0  0  0  0  0  0
   10.8007   -6.4301    5.1791 C   0  0  0  0  0  0  0  0  0  0  0  0
   10.3814   -5.6670    4.0479 O   0  0  0  0  0  0  0  0  0  0  0  0
   11.1107   -4.4409    3.9910 C   0  0  0  0  0  0  0  0  0  0  0  0
   10.8646   -3.5999    5.2294 C   0  0  0  0  0  0  0  0  0  0  0  0
   11.2653   -3.3342    8.0847 C   0  0  0  0  0  0  0  0  0  0  0  0
   10.0492   -2.8520    8.5049 C   0  0  0  0  0  0  0  0  0  0  0  0
    8.2273   -3.6512    7.5862 N   0  0  0  0  0  0  0  0  0  0  0  0
    7.8001   -4.1028    6.3692 N   0  0  0  0  0  0  0  0  0  0  0  0
    5.1733   -3.1010    4.1098 C   0  0  0  0  0  0  0  0  0  0  0  0
    4.5976   -3.3867    2.8954 C   0  0  0  0  0  0  0  0  0  0  0  0
    2.4377   -3.8360    1.2460 N   0  0  0  0  0  0  0  0  0  0  0  0
    2.3653   -2.4292    1.2510 O   0  0  0  0  0  0  0  0  0  0  0  0
    0.7022    1.0820   -0.0476 H   0  0  0  0  0  0  0  0  0  0  0  0
    0.7022   -0.4427   -0.9011 H   0  0  0  0  0  0  0  0  0  0  0  0
    2.1288    0.0733   -0.0342 H   0  0  0  0  0  0  0  0  0  0  0  0
    0.7022    1.1149    2.4344 H   0  0  0  0  0  0  0  0  0  0  0  0
    0.7022   -0.3866    3.3280 H   0  0  0  0  0  0  0  0  0  0  0  0
    2.1288    0.1062    2.4478 H   0  0  0  0  0  0  0  0  0  0  0  0
   -1.3245   -1.1427    0.3494 H   0  0  0  0  0  0  0  0  0  0  0  0
   -1.3245   -1.1195    2.0966 H   0  0  0  0  0  0  0  0  0  0  0  0
   -1.3245    0.3820    1.2029 H   0  0  0  0  0  0  0  0  0  0  0  0
   -0.7946   -3.2176    1.2415 H   0  0  0  0  0  0  0  0  0  0  0  0
   -0.2064   -5.9005    1.2365 H   0  0  0  0  0  0  0  0  0  0  0  0
    3.9417   -7.0808    1.2483 H   0  0  0  0  0  0  0  0  0  0  0  0
    4.2194   -4.7291    0.3771 H   0  0  0  0  0  0  0  0  0  0  0  0
    2.7613   -4.3155    1.2466 H   0  0  0  0  0  0  0  0  0  0  0  0
    5.1054   -6.6842    2.8089 H   0  0  0  0  0  0  0  0  0  0  0  0
    5.6476   -6.1202    5.1969 H   0  0  0  0  0  0  0  0  0  0  0  0
    5.0880   -2.7167    7.4014 H   0  0  0  0  0  0  0  0  0  0  0  0
    6.3038   -1.9441    9.7614 H   0  0  0  0  0  0  0  0  0  0  0  0
    9.9496   -4.1975   11.5574 H   0  0  0  0  0  0  0  0  0  0  0  0
   12.3403   -4.5756   10.8822 H   0  0  0  0  0  0  0  0  0  0  0  0
   13.7852   -3.5704    6.8720 H   0  0  0  0  0  0  0  0  0  0  0  0
   14.5178   -5.1558    6.9239 H   0  0  0  0  0  0  0  0  0  0  0  0
   12.8199   -5.0353    5.1610 H   0  0  0  0  0  0  0  0  0  0  0  0
   12.3511   -6.1741    6.4005 H   0  0  0  0  0  0  0  0  0  0  0  0
    9.5162   -5.4897    6.5858 H   0  0  0  0  0  0  0  0  0  0  0  0
   10.9245   -6.2447    7.2914 H   0  0  0  0  0  0  0  0  0  0  0  0
   11.8484   -6.6272    5.0877 H   0  0  0  0  0  0  0  0  0  0  0  0
   10.2480   -7.3459    5.2077 H   0  0  0  0  0  0  0  0  0  0  0  0
   10.7813   -3.8894    3.1353 H   0  0  0  0  0  0  0  0  0  0  0  0
   12.1557   -4.6591    3.9191 H   0  0  0  0  0  0  0  0  0  0  0  0
    9.8279   -3.3452    5.3025 H   0  0  0  0  0  0  0  0  0  0  0  0
   11.4361   -2.6971    5.1733 H   0  0  0  0  0  0  0  0  0  0  0  0
   11.6093   -3.1085    7.0970 H   0  0  0  0  0  0  0  0  0  0  0  0
    9.4253   -2.3175    7.8193 H   0  0  0  0  0  0  0  0  0  0  0  0
    8.3865   -4.6132    5.7089 H   0  0  0  0  0  0  0  0  0  0  0  0
    5.2118   -2.0871    4.4496 H   0  0  0  0  0  0  0  0  0  0  0  0
    4.2587   -2.5886    2.2684 H   0  0  0  0  0  0  0  0  0  0  0  0
  1  2  1  0  0  0  0
  1 44  1  0  0  0  0
  1 45  1  0  0  0  0
  1 46  1  0  0  0  0
  2  3  1  0  0  0  0
  2  4  1  0  0  0  0
  2  5  1  0  0  0  0
  3 47  1  0  0  0  0
  3 48  1  0  0  0  0
  3 49  1  0  0  0  0
  4 50  1  0  0  0  0
  4 51  1  0  0  0  0
  4 52  1  0  0  0  0
  5  6  2  0  0  0  0
  5 43  1  0  0  0  0
  6  7  1  0  0  0  0
  6 53  1  0  0  0  0
  7  8  1  0  0  0  0
  7 42  2  0  0  0  0
  8  9  1  0  0  0  0
  8 54  1  0  0  0  0
  9 10  2  0  0  0  0
  9 11  1  0  0  0  0
 11 12  1  0  0  0  0
 11 55  1  0  0  0  0
 12 13  1  0  0  0  0
 12 56  1  0  0  0  0
 12 57  1  0  0  0  0
 13 14  1  0  0  0  0
 13 41  2  0  0  0  0
 14 15  2  0  0  0  0
 14 58  1  0  0  0  0
 15 16  1  0  0  0  0
 15 59  1  0  0  0  0
 16 17  1  0  0  0  0
 16 40  2  0  0  0  0
 17 18  2  0  0  0  0
 17 39  1  0  0  0  0
 18 19  1  0  0  0  0
 18 60  1  0  0  0  0
 19 20  1  0  0  0  0
 19 38  2  0  0  0  0
 20 21  1  0  0  0  0
 20 61  1  0  0  0  0
 21 22  2  0  0  0  0
 21 23  1  0  0  0  0
 23 24  1  0  0  0  0
 23 37  2  0  0  0  0
 24 25  2  0  0  0  0
 24 62  1  0  0  0  0
 25 26  1  0  0  0  0
 25 63  1  0  0  0  0
 26 27  1  0  0  0  0
 26 36  2  0  0  0  0
 27 28  1  0  0  0  0
 28 29  1  0  0  0  0
 28 64  1  0  0  0  0
 28 65  1  0  0  0  0
 29 30  1  0  0  0  0
 29 66  1  0  0  0  0
 29 67  1  0  0  0  0
 30 31  1  0  0  0  0
 30 35  1  0  0  0  0
 31 32  1  0  0  0  0
 31 68  1  0  0  0  0
 31 69  1  0  0  0  0
 32 33  1  0  0  0  0
 32 70  1  0  0  0  0
 32 71  1  0  0  0  0
 33 34  1  0  0  0  0
 34 35  1  0  0  0  0
 34 72  1  0  0  0  0
 34 73  1  0  0  0  0
 35 74  1  0  0  0  0
 35 75  1  0  0  0  0
 36 37  1  0  0  0  0
 36 76  1  0  0  0  0
 37 77  1  0  0  0  0
 38 39  1  0  0  0  0
 39 78  1  0  0  0  0
 40 41  1  0  0  0  0
 40 79  1  0  0  0  0
 41 80  1  0  0  0  0
 42 43  1  0  0  0  0
M  END
