REMARK  Name = 
REMARK  11 active torsions:
REMARK  status: ('A' for Active; 'I' for Inactive)
REMARK    1  A    between atoms: C_1  and  O_2
REMARK    2  A    between atoms: O_2  and  C_3
REMARK    3  A    between atoms: N_10  and  C_11
REMARK    4  A    between atoms: C_21  and  C_22
REMARK    5  A    between atoms: C_22  and  N_23
REMARK    6  A    between atoms: N_23  and  C_24
REMARK    7  A    between atoms: N_23  and  C_25
REMARK    8  A    between atoms: C_25  and  C_26
REMARK    9  A    between atoms: C_25  and  C_27
REMARK   10  A    between atoms: N_29  and  C_30
REMARK   11  A    between atoms: N_29  and  C_31
REMARK                            x       y       z     vdW  Elec       q    Type
REMARK                         _______ _______ _______ _____ _____    ______ ____
ROOT
ATOM      1  C   UNL     1       0.801   1.392  -2.004  0.00  0.00    +0.000 A 
ATOM      2  C   UNL     1      -0.179   1.960  -2.769  0.00  0.00    +0.000 A 
ATOM      3  C   UNL     1       0.102   3.103  -3.551  0.00  0.00    +0.000 A 
ATOM      4  N   UNL     1      -0.895   3.685  -4.291  0.00  0.00    +0.000 NA
ATOM      5  C   UNL     1      -0.564   4.734  -4.991  0.00  0.00    +0.000 A 
ATOM      6  N   UNL     1       0.676   5.307  -5.077  0.00  0.00    +0.000 NA
ATOM      7  C   UNL     1       1.643   4.753  -4.385  0.00  0.00    +0.000 A 
ATOM      8  N   UNL     1       2.996   5.321  -4.468  0.00  0.00    +0.000 N 
ATOM      9  C   UNL     1       1.418   3.617  -3.556  0.00  0.00    +0.000 A 
ATOM     10  C   UNL     1       2.418   3.003  -2.768  0.00  0.00    +0.000 A 
ATOM     11  C   UNL     1       2.108   1.916  -2.002  0.00  0.00    +0.000 A 
ATOM     12  H   UNL     1       3.759   4.901  -3.936  0.00  0.00    +0.000 HD
ENDROOT
BRANCH   8  13
ATOM     13  C   UNL     1       3.251   6.493  -5.317  0.00  0.00    +0.000 A 
ATOM     14  C   UNL     1       4.271   6.424  -6.243  0.00  0.00    +0.000 A 
ATOM     15  C   UNL     1       4.654   7.541  -6.975  0.00  0.00    +0.000 A 
ATOM     16  C   UNL     1       3.989   8.748  -6.763  0.00  0.00    +0.000 A 
ATOM     17  C   UNL     1       2.967   8.815  -5.836  0.00  0.00    +0.000 A 
ATOM     18 CL   UNL     1       2.107  10.298  -5.595  0.00  0.00    +0.000 Cl
ATOM     19  C   UNL     1       2.613   7.692  -5.123  0.00  0.00    +0.000 A 
ATOM     20  F   UNL     1       1.600   7.763  -4.236  0.00  0.00    +0.000 F 
ENDBRANCH   8  13
BRANCH   1  22
ATOM     21  C   UNL     1       0.931  -0.067  -0.028  0.00  0.00    +0.000 C 
ATOM     22  O   UNL     1       0.458   0.183  -1.343  0.00  0.00    +0.000 OA
ENDBRANCH   1  22
BRANCH  11  23
ATOM     23  C   UNL     1       3.181   1.267  -1.143  0.00  0.00    +0.000 C 
BRANCH  23  24
ATOM     24  N   UNL     1       4.279   0.799  -2.001  0.00  0.00    +0.000 NA
ATOM     25  C   UNL     1       5.317   0.171  -1.171  0.00  0.00    +0.000 C 
BRANCH  24  26
ATOM     26  C   UNL     1       3.764  -0.183  -2.966  0.00  0.00    +0.000 C 
ATOM     27  C   UNL     1       3.167  -1.364  -2.218  0.00  0.00    +0.000 C 
BRANCH  26  28
ATOM     28  C   UNL     1       2.691   0.467  -3.825  0.00  0.00    +0.000 C 
ATOM     29  O   UNL     1       2.840   0.533  -5.086  0.00  0.00    +0.000 OA
ATOM     30  N   UNL     1       1.481   1.018  -3.198  0.00  0.00    +0.000 N 
ATOM     31  C   UNL     1       1.308   0.941  -1.740  0.00  0.00    +0.000 C 
ATOM     32  C   UNL     1       0.443   1.646  -4.029  0.00  0.00    +0.000 C 
ENDBRANCH  26  28
ENDBRANCH  24  26
ENDBRANCH  23  24
ENDBRANCH  11  23
TORSDOF 6
