
 OpenBabel03132514253D

 67 72  0  0  0  0  0  0  0  0999 V2000
    1.0300   -0.0249    0.0921 C   0  0  0  0  0  0  0  0  0  0  0  0
    0.5400    1.2436    0.6505 N   0  0  0  0  0  0  0  0  0  0  0  0
    0.9206    1.6553    2.1226 S   0  0  0  0  0  0  0  0  0  0  0  0
    0.4018    0.5967    3.0986 O   0  0  0  0  0  0  0  0  0  0  0  0
    2.7204    1.7797    2.2681 C   0  0  0  0  0  0  0  0  0  0  0  0
    3.4804    0.6224    2.3067 C   0  0  0  0  0  0  0  0  0  0  0  0
    4.8202    0.8296    2.7118 C   0  0  0  0  0  0  0  0  0  0  0  0
    5.4304    2.0008    2.7104 C   0  0  0  0  0  0  0  0  0  0  0  0
    6.9417    2.1166    2.8245 C   0  0  0  0  0  0  0  0  0  0  0  0
    7.7430    1.5233    1.8630 C   0  0  0  0  0  0  0  0  0  0  0  0
    9.1088    1.4446    2.2240 C   0  0  0  0  0  0  0  0  0  0  0  0
    9.6730    2.1589    3.1808 C   0  0  0  0  0  0  0  0  0  0  0  0
   11.1828    2.2877    3.2997 C   0  0  0  0  0  0  0  0  0  0  0  0
   11.9097    2.8340    2.2606 N   0  0  0  0  0  0  0  0  0  0  0  0
   13.2990    2.9442    2.3719 C   0  0  0  0  0  0  0  0  0  0  0  0
   14.3476    3.4561    1.4911 N   0  0  0  0  0  0  0  0  0  0  0  0
   15.4872    3.3158    2.1027 C   0  0  0  0  0  0  0  0  0  0  0  0
   16.7473    3.6973    1.5706 O   0  0  0  0  0  0  0  0  0  0  0  0
   16.8252    4.2803    0.2782 C   0  0  0  0  0  0  0  0  0  0  0  0
   16.1127    5.4175    0.2305 C   0  0  0  0  0  0  0  0  0  0  0  0
   14.7374    5.1182   -0.1376 O   0  0  0  0  0  0  0  0  0  0  0  0
   14.7677    3.7707   -0.8838 C   0  0  0  0  0  0  0  0  0  0  0  0
   14.5763    4.0172   -2.3659 C   0  0  0  0  0  0  0  0  0  0  0  0
   13.6400    5.0611   -2.5895 O   0  0  0  0  0  0  0  0  0  0  0  0
   15.7965    4.3411   -2.8758 C   0  0  0  0  0  0  0  0  0  0  0  0
   16.8428    3.6554   -2.1328 O   0  0  0  0  0  0  0  0  0  0  0  0
   16.2512    3.3257   -0.7492 C   0  0  0  0  0  0  0  0  0  0  0  0
   15.2920    2.7352    3.3594 N   0  0  0  0  0  0  0  0  0  0  0  0
   13.9443    2.4996    3.5393 C   0  0  0  0  0  0  0  0  0  0  0  0
   13.1959    1.9532    4.5757 C   0  0  0  0  0  0  0  0  0  0  0  0
   11.8278    1.8537    4.4581 C   0  0  0  0  0  0  0  0  0  0  0  0
   10.8743    1.1660    5.7947 Cl  0  0  0  0  0  0  0  0  0  0  0  0
    8.8259    2.7763    4.0587 C   0  0  0  0  0  0  0  0  0  0  0  0
    7.4688    2.7847    3.8438 C   0  0  0  0  0  0  0  0  0  0  0  0
    4.6296    3.1036    2.6008 C   0  0  0  0  0  0  0  0  0  0  0  0
    3.2872    2.9786    2.3358 C   0  0  0  0  0  0  0  0  0  0  0  0
    0.1922    3.2115    2.5034 N   0  0  0  0  0  0  0  0  0  0  0  0
   -1.2696    3.1104    2.3852 C   0  0  0  0  0  0  0  0  0  0  0  0
    0.5473    3.5957    3.8771 C   0  0  0  0  0  0  0  0  0  0  0  0
    0.6734   -0.1345   -0.9107 H   0  0  0  0  0  0  0  0  0  0  0  0
    0.6734   -0.8385    0.6884 H   0  0  0  0  0  0  0  0  0  0  0  0
    2.1000   -0.0249    0.0921 H   0  0  0  0  0  0  0  0  0  0  0  0
    3.0898   -0.3410    2.0533 H   0  0  0  0  0  0  0  0  0  0  0  0
    5.3778   -0.0218    3.0422 H   0  0  0  0  0  0  0  0  0  0  0  0
    7.3635    1.1577    0.9317 H   0  0  0  0  0  0  0  0  0  0  0  0
    9.7276    0.7586    1.6841 H   0  0  0  0  0  0  0  0  0  0  0  0
   17.8539    4.4869    0.0684 H   0  0  0  0  0  0  0  0  0  0  0  0
   16.1286    5.8866    1.1920 H   0  0  0  0  0  0  0  0  0  0  0  0
   16.5407    6.0753   -0.4969 H   0  0  0  0  0  0  0  0  0  0  0  0
   14.0324    3.0874   -0.5131 H   0  0  0  0  0  0  0  0  0  0  0  0
   14.2024    3.1339   -2.8401 H   0  0  0  0  0  0  0  0  0  0  0  0
   13.9667    5.9005   -2.1552 H   0  0  0  0  0  0  0  0  0  0  0  0
   15.9424    5.3980   -2.7949 H   0  0  0  0  0  0  0  0  0  0  0  0
   15.8406    4.0470   -3.9037 H   0  0  0  0  0  0  0  0  0  0  0  0
   16.4239    2.3065   -0.4727 H   0  0  0  0  0  0  0  0  0  0  0  0
   16.0265    2.5206    4.0338 H   0  0  0  0  0  0  0  0  0  0  0  0
   13.6831    1.6100    5.4644 H   0  0  0  0  0  0  0  0  0  0  0  0
    9.2256    3.2598    4.9255 H   0  0  0  0  0  0  0  0  0  0  0  0
    6.8310    3.3346    4.5039 H   0  0  0  0  0  0  0  0  0  0  0  0
    5.0544    4.0780    2.7232 H   0  0  0  0  0  0  0  0  0  0  0  0
    2.6932    3.8553    2.1825 H   0  0  0  0  0  0  0  0  0  0  0  0
   -1.6323    2.3704    3.0676 H   0  0  0  0  0  0  0  0  0  0  0  0
   -1.7124    4.0566    2.6167 H   0  0  0  0  0  0  0  0  0  0  0  0
   -1.5281    2.8308    1.3853 H   0  0  0  0  0  0  0  0  0  0  0  0
    0.1846    2.8556    4.5595 H   0  0  0  0  0  0  0  0  0  0  0  0
    1.6113    3.6693    3.9632 H   0  0  0  0  0  0  0  0  0  0  0  0
    0.1044    4.5419    4.1087 H   0  0  0  0  0  0  0  0  0  0  0  0
  1  2  1  0  0  0  0
  1 40  1  0  0  0  0
  1 41  1  0  0  0  0
  1 42  1  0  0  0  0
  2  3  2  0  0  0  0
  3  4  2  0  0  0  0
  3  5  1  0  0  0  0
  3 37  1  0  0  0  0
  5  6  1  0  0  0  0
  5 36  2  0  0  0  0
  6  7  2  0  0  0  0
  6 43  1  0  0  0  0
  7  8  1  0  0  0  0
  7 44  1  0  0  0  0
  8  9  1  0  0  0  0
  8 35  2  0  0  0  0
  9 10  1  0  0  0  0
  9 34  2  0  0  0  0
 10 11  2  0  0  0  0
 10 45  1  0  0  0  0
 11 12  1  0  0  0  0
 11 46  1  0  0  0  0
 12 13  1  0  0  0  0
 12 33  2  0  0  0  0
 13 14  1  0  0  0  0
 13 31  2  0  0  0  0
 14 15  2  0  0  0  0
 15 16  1  0  0  0  0
 15 29  1  0  0  0  0
 16 17  2  0  0  0  0
 17 18  1  0  0  0  0
 17 28  1  0  0  0  0
 18 19  1  0  0  0  0
 19 20  1  0  0  0  0
 19 27  1  0  0  0  0
 19 47  1  0  0  0  0
 20 21  1  0  0  0  0
 20 48  1  0  0  0  0
 20 49  1  0  0  0  0
 21 22  1  0  0  0  0
 22 23  1  0  0  0  0
 22 27  1  0  0  0  0
 22 50  1  0  0  0  0
 23 24  1  0  0  0  0
 23 25  1  0  0  0  0
 23 51  1  0  0  0  0
 24 52  1  0  0  0  0
 25 26  1  0  0  0  0
 25 53  1  0  0  0  0
 25 54  1  0  0  0  0
 26 27  1  0  0  0  0
 27 55  1  0  0  0  0
 28 29  1  0  0  0  0
 28 56  1  0  0  0  0
 29 30  2  0  0  0  0
 30 31  1  0  0  0  0
 30 57  1  0  0  0  0
 31 32  1  0  0  0  0
 33 34  1  0  0  0  0
 33 58  1  0  0  0  0
 34 59  1  0  0  0  0
 35 36  1  0  0  0  0
 35 60  1  0  0  0  0
 36 61  1  0  0  0  0
 37 38  1  0  0  0  0
 37 39  1  0  0  0  0
 38 62  1  0  0  0  0
 38 63  1  0  0  0  0
 38 64  1  0  0  0  0
 39 65  1  0  0  0  0
 39 66  1  0  0  0  0
 39 67  1  0  0  0  0
M  END
