REMARK  Name = 
REMARK  7 active torsions:
REMARK  status: ('A' for Active; 'I' for Inactive)
REMARK    1  A    between atoms: C_2  and  C_13
REMARK    2  A    between atoms: N_3  and  CA_4
REMARK    3  A    between atoms: CA_4  and  C_5
REMARK    4  A    between atoms: CA_4  and  C_7
REMARK    5  A    between atoms: C_5  and  O_6
REMARK    6  A    between atoms: N_19  and  C_20
REMARK    7  A    between atoms: C_23  and  O_24
REMARK                            x       y       z     vdW  Elec       q    Type
REMARK                         _______ _______ _______ _____ _____    ______ ____
ROOT
ATOM      1  C   UNL     1       2.990   1.058  -0.727  0.00  0.00    +0.000 A 
ATOM      2  C   UNL     1       4.033   0.849  -1.614  0.00  0.00    +0.000 A 
ATOM      3  C   UNL     1       4.735   2.027  -1.962  0.00  0.00    +0.000 A 
ATOM      4  C   UNL     1       4.274   3.252  -1.788  0.00  0.00    +0.000 A 
ATOM      5  N   UNL     1       4.853   4.350  -2.421  0.00  0.00    +0.000 NA
ATOM      6  C   UNL     1       4.337   5.626  -2.210  0.00  0.00    +0.000 A 
ATOM      7  N   UNL     1       3.181   5.815  -1.321  0.00  0.00    +0.000 N 
ATOM      8  C   UNL     1       4.968   6.825  -2.901  0.00  0.00    +0.000 A 
ATOM      9  N   UNL     1       5.288   6.785  -4.165  0.00  0.00    +0.000 NA
ATOM     10  C   UNL     1       5.947   7.934  -4.452  0.00  0.00    +0.000 A 
ATOM     11  C   UNL     1       5.982   8.641  -3.296  0.00  0.00    +0.000 A 
ATOM     12  N   UNL     1       5.377   7.930  -2.385  0.00  0.00    +0.000 N 
ATOM     13  C   UNL     1       3.199   3.385  -0.954  0.00  0.00    +0.000 A 
ATOM     14  C   UNL     1       2.541   2.281  -0.468  0.00  0.00    +0.000 A 
ATOM     15  H   UNL     1       2.758   5.011  -0.858  0.00  0.00    +0.000 HD
ENDROOT
BRANCH   7  16
ATOM     16  C   UNL     1       2.637   7.162  -1.099  0.00  0.00    +0.000 C 
ATOM     17  C   UNL     1       1.701   6.296  -1.931  0.00  0.00    +0.000 C 
ATOM     18  C   UNL     1       2.048   6.338  -3.418  0.00  0.00    +0.000 C 
ATOM     19  C   UNL     1       2.009   7.794  -3.884  0.00  0.00    +0.000 C 
ATOM     20  C   UNL     1       2.956   8.647  -3.072  0.00  0.00    +0.000 C 
ATOM     21  C   UNL     1       2.652   8.597  -1.584  0.00  0.00    +0.000 C 
BRANCH  19  22
ATOM     22  O   UNL     1       2.400   7.959  -5.250  0.00  0.00    +0.000 OA
ATOM     23  H   UNL     1       3.353   7.678  -5.359  0.00  0.00    +0.000 HD
ENDBRANCH  19  22
ENDBRANCH   7  16
BRANCH   1  25
ATOM     24  O   UNL     1       0.959  -0.073  -0.054  0.00  0.00    +0.000 OA
ATOM     25  C   UNL     1       2.229  -0.073  -0.054  0.00  0.00    +0.000 C 
ATOM     26  N   UNL     1       2.965  -1.167   0.596  0.00  0.00    +0.000 N 
ATOM     27  H   UNL     1       2.454  -1.926   1.048  0.00  0.00    +0.000 HD
BRANCH  26  28
ATOM     28  CA  UNL     1       4.434  -1.167   0.596  0.00  0.00    +0.000 C 
BRANCH  28  29
ATOM     29  C   UNL     1       4.941  -2.417  -0.104  0.00  0.00    +0.000 A 
ATOM     30  C   UNL     1       4.193  -3.557   0.143  0.00  0.00    +0.000 A 
ATOM     31  C   UNL     1       4.779  -4.746  -0.352  0.00  0.00    +0.000 A 
ATOM     32  C   UNL     1       5.733  -4.788  -1.264  0.00  0.00    +0.000 A 
ATOM     33  C   UNL     1       6.389  -3.614  -1.511  0.00  0.00    +0.000 A 
ATOM     34  C   UNL     1       5.956  -2.432  -0.961  0.00  0.00    +0.000 A 
ENDBRANCH  28  29
BRANCH  28  35
ATOM     35  C   UNL     1       4.941  -1.149   2.029  0.00  0.00    +0.000 C 
BRANCH  35  36
ATOM     36  O   UNL     1       4.468  -2.299   2.714  0.00  0.00    +0.000 OA
ATOM     37  H   UNL     1       3.468  -2.299   2.714  0.00  0.00    +0.000 HD
ENDBRANCH  35  36
ENDBRANCH  28  35
ENDBRANCH  26  28
ENDBRANCH   1  25
TORSDOF 7
