
 OpenBabel03132514253D

 45 48  0  0  0  0  0  0  0  0999 V2000
    1.0460    0.0652   -0.0603 C   0  0  0  0  0  0  0  0  0  0  0  0
    0.5726    1.3861   -0.2783 O   0  0  0  0  0  0  0  0  0  0  0  0
    0.9157    2.4222    0.6302 C   0  0  0  0  0  0  0  0  0  0  0  0
   -0.1067    3.1277    1.1239 N   0  0  0  0  0  0  0  0  0  0  0  0
    0.1512    3.9833    2.1254 C   0  0  0  0  0  0  0  0  0  0  0  0
   -0.9946    4.7974    2.7039 C   0  0  0  0  0  0  0  0  0  0  0  0
   -2.0832    4.1921    3.3115 C   0  0  0  0  0  0  0  0  0  0  0  0
   -3.0964    4.9988    3.8596 C   0  0  0  0  0  0  0  0  0  0  0  0
   -4.3708    4.7365    4.4771 C   0  0  0  0  0  0  0  0  0  0  0  0
   -4.9543    3.3759    4.8218 C   0  0  0  0  0  0  0  0  0  0  0  0
   -6.0987    3.2953    5.3686 O   0  0  0  0  0  0  0  0  0  0  0  0
   -4.2207    2.1949    4.5328 O   0  0  0  0  0  0  0  0  0  0  0  0
   -4.9544    5.9635    4.6927 C   0  0  0  0  0  0  0  0  0  0  0  0
   -4.1160    6.9696    4.2922 N   0  0  0  0  0  0  0  0  0  0  0  0
   -2.9788    6.4092    3.7575 C   0  0  0  0  0  0  0  0  0  0  0  0
   -1.8840    7.0369    3.1537 C   0  0  0  0  0  0  0  0  0  0  0  0
   -0.9130    6.1996    2.6414 C   0  0  0  0  0  0  0  0  0  0  0  0
    0.4706    6.9055    1.8451 Cl  0  0  0  0  0  0  0  0  0  0  0  0
    1.4171    4.1527    2.6506 C   0  0  0  0  0  0  0  0  0  0  0  0
    2.4856    3.4289    2.1154 C   0  0  0  0  0  0  0  0  0  0  0  0
    2.2110    2.5477    1.0772 C   0  0  0  0  0  0  0  0  0  0  0  0
    3.2900    1.7598    0.4642 N   0  0  0  0  0  0  0  0  0  0  0  0
    3.7475    1.7554   -1.0151 C   0  0  0  0  0  0  0  0  0  0  0  0
    4.0699    0.2583   -1.2664 C   0  0  0  0  0  0  0  0  0  0  0  0
    4.7138   -0.2174    0.0528 C   0  0  0  0  0  0  0  0  0  0  0  0
    6.1310   -0.2055   -0.0354 O   0  0  0  0  0  0  0  0  0  0  0  0
    4.2178    0.7376    1.1528 C   0  0  0  0  0  0  0  0  0  0  0  0
    0.6893   -0.5747   -0.8402 H   0  0  0  0  0  0  0  0  0  0  0  0
    0.6893   -0.2902    0.8838 H   0  0  0  0  0  0  0  0  0  0  0  0
    2.1160    0.0652   -0.0603 H   0  0  0  0  0  0  0  0  0  0  0  0
   -2.1518    3.1255    3.3629 H   0  0  0  0  0  0  0  0  0  0  0  0
   -4.6046    1.2998    4.7595 H   0  0  0  0  0  0  0  0  0  0  0  0
   -5.9268    6.1110    5.1141 H   0  0  0  0  0  0  0  0  0  0  0  0
   -4.3035    7.9687    4.3763 H   0  0  0  0  0  0  0  0  0  0  0  0
   -1.8038    8.1021    3.0926 H   0  0  0  0  0  0  0  0  0  0  0  0
    1.5784    4.8328    3.4608 H   0  0  0  0  0  0  0  0  0  0  0  0
    3.4799    3.5490    2.4919 H   0  0  0  0  0  0  0  0  0  0  0  0
    3.0155    2.1514   -1.6877 H   0  0  0  0  0  0  0  0  0  0  0  0
    4.6156    2.3656   -1.1527 H   0  0  0  0  0  0  0  0  0  0  0  0
    4.7109    0.1134   -2.1108 H   0  0  0  0  0  0  0  0  0  0  0  0
    3.1762   -0.2928   -1.4727 H   0  0  0  0  0  0  0  0  0  0  0  0
    4.4115   -1.2204    0.2706 H   0  0  0  0  0  0  0  0  0  0  0  0
    6.4445    0.7220   -0.2389 H   0  0  0  0  0  0  0  0  0  0  0  0
    5.0371    1.2258    1.6380 H   0  0  0  0  0  0  0  0  0  0  0  0
    3.6777    0.1927    1.8987 H   0  0  0  0  0  0  0  0  0  0  0  0
  1  2  1  0  0  0  0
  1 28  1  0  0  0  0
  1 29  1  0  0  0  0
  1 30  1  0  0  0  0
  2  3  1  0  0  0  0
  3  4  1  0  0  0  0
  3 21  2  0  0  0  0
  4  5  2  0  0  0  0
  5  6  1  0  0  0  0
  5 19  1  0  0  0  0
  6  7  1  0  0  0  0
  6 17  2  0  0  0  0
  7  8  2  0  0  0  0
  7 31  1  0  0  0  0
  8  9  1  0  0  0  0
  8 15  1  0  0  0  0
  9 10  1  0  0  0  0
  9 13  2  0  0  0  0
 10 11  2  0  0  0  0
 10 12  1  0  0  0  0
 12 32  1  0  0  0  0
 13 14  1  0  0  0  0
 13 33  1  0  0  0  0
 14 15  1  0  0  0  0
 14 34  1  0  0  0  0
 15 16  2  0  0  0  0
 16 17  1  0  0  0  0
 16 35  1  0  0  0  0
 17 18  1  0  0  0  0
 19 20  2  0  0  0  0
 19 36  1  0  0  0  0
 20 21  1  0  0  0  0
 20 37  1  0  0  0  0
 21 22  1  0  0  0  0
 22 23  1  0  0  0  0
 22 27  1  0  0  0  0
 23 24  1  0  0  0  0
 23 38  1  0  0  0  0
 23 39  1  0  0  0  0
 24 25  1  0  0  0  0
 24 40  1  0  0  0  0
 24 41  1  0  0  0  0
 25 26  1  0  0  0  0
 25 27  1  0  0  0  0
 25 42  1  0  0  0  0
 26 43  1  0  0  0  0
 27 44  1  0  0  0  0
 27 45  1  0  0  0  0
M  END
