
 OpenBabel03132512093D

 39 42  0  0  0  0  0  0  0  0999 V2000
    1.0812   -0.0218    0.0542 O   0  0  0  0  0  0  0  0  0  0  0  0
    2.3521   -0.0218    0.0542 C   0  0  0  0  0  0  0  0  0  0  0  0
    3.0871    0.4363   -1.1336 N   0  0  0  0  0  0  0  0  0  0  0  0
    4.5571    0.4363   -1.1336 C   0  0  0  0  0  0  0  0  0  0  0  0
    5.2389   -0.6366   -0.6580 N   0  0  0  0  0  0  0  0  0  0  0  0
    6.5800   -0.6524   -0.6842 C   0  0  0  0  0  0  0  0  0  0  0  0
    7.2813    0.4124   -1.0869 N   0  0  0  0  0  0  0  0  0  0  0  0
    6.6498    1.4986   -1.5912 C   0  0  0  0  0  0  0  0  0  0  0  0
    7.1601    2.6803   -2.1348 O   0  0  0  0  0  0  0  0  0  0  0  0
    6.1083    3.5006   -2.4768 C   0  0  0  0  0  0  0  0  0  0  0  0
    6.2060    4.8919   -3.0811 C   0  0  0  0  0  0  0  0  0  0  0  0
    6.8461    5.0555   -4.3121 C   0  0  0  0  0  0  0  0  0  0  0  0
    6.9618    6.3465   -4.8116 C   0  0  0  0  0  0  0  0  0  0  0  0
    6.4429    7.3943   -4.0861 C   0  0  0  0  0  0  0  0  0  0  0  0
    5.8486    7.2461   -2.8980 N   0  0  0  0  0  0  0  0  0  0  0  0
    5.7356    6.0019   -2.4074 C   0  0  0  0  0  0  0  0  0  0  0  0
    4.9169    2.8010   -2.1583 C   0  0  0  0  0  0  0  0  0  0  0  0
    5.2684    1.5551   -1.6309 C   0  0  0  0  0  0  0  0  0  0  0  0
    3.1121   -0.4955    1.2823 C   0  0  0  0  0  0  0  0  0  0  0  0
    3.4654   -2.0103    1.1923 C   0  0  0  0  0  0  0  0  0  0  0  0
    4.5432   -2.2076    2.2688 C   0  0  0  0  0  0  0  0  0  0  0  0
    5.3235   -0.8266    2.3253 C   0  0  0  0  0  0  0  0  0  0  0  0
    4.5168    0.1263    1.4218 C   0  0  0  0  0  0  0  0  0  0  0  0
    2.5771    0.7542   -1.9578 H   0  0  0  0  0  0  0  0  0  0  0  0
    7.0994   -1.5358   -0.3765 H   0  0  0  0  0  0  0  0  0  0  0  0
    7.2335    4.2161   -4.8509 H   0  0  0  0  0  0  0  0  0  0  0  0
    7.4479    6.5239   -5.7481 H   0  0  0  0  0  0  0  0  0  0  0  0
    6.5192    8.3802   -4.4947 H   0  0  0  0  0  0  0  0  0  0  0  0
    5.2627    5.8647   -1.4575 H   0  0  0  0  0  0  0  0  0  0  0  0
    3.9201    3.1643   -2.2977 H   0  0  0  0  0  0  0  0  0  0  0  0
    2.4539   -0.2296    2.0829 H   0  0  0  0  0  0  0  0  0  0  0  0
    2.6139   -2.6405    1.3431 H   0  0  0  0  0  0  0  0  0  0  0  0
    3.8472   -2.2545    0.2231 H   0  0  0  0  0  0  0  0  0  0  0  0
    5.1924   -3.0275    2.0425 H   0  0  0  0  0  0  0  0  0  0  0  0
    4.0942   -2.4250    3.2153 H   0  0  0  0  0  0  0  0  0  0  0  0
    6.3381   -0.9253    2.0000 H   0  0  0  0  0  0  0  0  0  0  0  0
    5.3575   -0.4549    3.3281 H   0  0  0  0  0  0  0  0  0  0  0  0
    4.9853    0.2471    0.4675 H   0  0  0  0  0  0  0  0  0  0  0  0
    4.4503    1.0951    1.8711 H   0  0  0  0  0  0  0  0  0  0  0  0
  1  2  2  0  0  0  0
  2  3  1  0  0  0  0
  2 19  1  0  0  0  0
  3  4  1  0  0  0  0
  3 24  1  0  0  0  0
  4  5  1  0  0  0  0
  4 18  2  0  0  0  0
  5  6  2  0  0  0  0
  6  7  1  0  0  0  0
  6 25  1  0  0  0  0
  7  8  2  0  0  0  0
  8  9  1  0  0  0  0
  8 18  1  0  0  0  0
  9 10  1  0  0  0  0
 10 11  1  0  0  0  0
 10 17  2  0  0  0  0
 11 12  1  0  0  0  0
 11 16  2  0  0  0  0
 12 13  2  0  0  0  0
 12 26  1  0  0  0  0
 13 14  1  0  0  0  0
 13 27  1  0  0  0  0
 14 15  2  0  0  0  0
 14 28  1  0  0  0  0
 15 16  1  0  0  0  0
 16 29  1  0  0  0  0
 17 18  1  0  0  0  0
 17 30  1  0  0  0  0
 19 20  1  0  0  0  0
 19 23  1  0  0  0  0
 19 31  1  0  0  0  0
 20 21  1  0  0  0  0
 20 32  1  0  0  0  0
 20 33  1  0  0  0  0
 21 22  1  0  0  0  0
 21 34  1  0  0  0  0
 21 35  1  0  0  0  0
 22 23  1  0  0  0  0
 22 36  1  0  0  0  0
 22 37  1  0  0  0  0
 23 38  1  0  0  0  0
 23 39  1  0  0  0  0
M  END
