REMARK  Name = 
REMARK  5 active torsions:
REMARK  status: ('A' for Active; 'I' for Inactive)
REMARK    1  A    between atoms: C_1  and  C_2
REMARK    2  A    between atoms: C_2  and  C_3
REMARK    3  A    between atoms: C_11  and  N_12
REMARK    4  A    between atoms: N_16  and  C_17
REMARK    5  A    between atoms: C_17  and  C_18
REMARK                            x       y       z     vdW  Elec       q    Type
REMARK                         _______ _______ _______ _____ _____    ______ ____
ROOT
ATOM      1  N   UNL     1      -2.433   5.599  -1.144  0.00  0.00    +0.000 N 
ATOM      2  C   UNL     1      -3.460   5.409  -2.179  0.00  0.00    +0.000 A 
ATOM      3  N   UNL     1      -3.328   6.017  -3.411  0.00  0.00    +0.000 NA
ATOM      4  C   UNL     1      -4.253   5.861  -4.346  0.00  0.00    +0.000 A 
ATOM      5  N   UNL     1      -4.082   6.529  -5.643  0.00  0.00    +0.000 N 
ATOM      6  C   UNL     1      -5.327   5.117  -4.140  0.00  0.00    +0.000 A 
ATOM      7  O   UNL     1      -6.239   4.980  -5.120  0.00  0.00    +0.000 OA
ATOM      8  C   UNL     1      -7.334   4.225  -4.918  0.00  0.00    +0.000 A 
ATOM      9  C   UNL     1      -6.696   3.671  -2.714  0.00  0.00    +0.000 A 
ATOM     10  C   UNL     1      -5.524   4.479  -2.930  0.00  0.00    +0.000 A 
ATOM     11  N   UNL     1      -4.577   4.626  -1.927  0.00  0.00    +0.000 NA
ATOM     12  H   UNL     1      -2.219   6.536  -0.804  0.00  0.00    +0.000 HD
ATOM     13  H   UNL     1      -4.787   6.417  -6.372  0.00  0.00    +0.000 HD
ENDROOT
BRANCH   1  24
ATOM     14  C   UNL     1       0.987  -0.029  -0.095  0.00  0.00    +0.000 C 
ATOM     15  C   UNL     1       0.480   0.828   1.054  0.00  0.00    +0.000 C 
ATOM     16  C   UNL     1       1.685   1.170   1.914  0.00  0.00    +0.000 C 
ATOM     17  O   UNL     1      -0.846  -0.058   1.935  0.00  0.00    +0.000 OA
ATOM     18  C   UNL     1      -1.685  -0.839   0.945  0.00  0.00    +0.000 C 
ATOM     19  C   UNL     1      -2.544  -0.022   0.007  0.00  0.00    +0.000 C 
ATOM     20  O   UNL     1      -3.810   0.061   0.087  0.00  0.00    +0.000 OA
ATOM     21  N   UNL     1      -1.700   0.691  -1.051  0.00  0.00    +0.000 N 
ATOM     22  C   UNL     1      -1.339   2.071  -0.542  0.00  0.00    +0.000 A 
ATOM     23  C   UNL     1      -2.007   3.171  -1.062  0.00  0.00    +0.000 A 
ATOM     24  C   UNL     1      -1.715   4.437  -0.600  0.00  0.00    +0.000 A 
ATOM     25  C   UNL     1      -0.739   4.622   0.385  0.00  0.00    +0.000 A 
ATOM     26  C   UNL     1      -0.064   3.513   0.904  0.00  0.00    +0.000 A 
ATOM     27  C   UNL     1      -0.376   2.251   0.426  0.00  0.00    +0.000 A 
ATOM     28  H   UNL     1      -1.425   0.300  -1.952  0.00  0.00    +0.000 HD
ENDBRANCH   1  24
BRANCH   5  29
ATOM     29  C   UNL     1      -2.895   7.360  -5.891  0.00  0.00    +0.000 C 
BRANCH  29  30
ATOM     30  C   UNL     1      -2.118   6.796  -7.070  0.00  0.00    +0.000 C 
ATOM     31  F   UNL     1      -2.892   6.795  -8.151  0.00  0.00    +0.000 F 
ATOM     32  F   UNL     1      -1.044   7.547  -7.294  0.00  0.00    +0.000 F 
ATOM     33  F   UNL     1      -1.739   5.551  -6.795  0.00  0.00    +0.000 F 
ENDBRANCH  29  30
ENDBRANCH   5  29
TORSDOF 3
