
 OpenBabel03132514253D

 55 56  0  0  0  0  0  0  0  0999 V2000
    0.9903   -0.0783   -0.0615 C   0  0  0  0  0  0  0  0  0  0  0  0
    0.5170   -1.4129    0.0441 O   0  0  0  0  0  0  0  0  0  0  0  0
    0.8600   -2.3685   -0.9487 C   0  0  0  0  0  0  0  0  0  0  0  0
   -0.2131   -3.0581   -1.4886 C   0  0  0  0  0  0  0  0  0  0  0  0
    0.1603   -4.1041   -2.3652 C   0  0  0  0  0  0  0  0  0  0  0  0
   -1.0784   -5.3686   -2.7431 S   0  0  0  0  0  0  0  0  0  0  0  0
   -1.5876   -6.1907   -1.2130 C   0  0  0  0  0  0  0  0  0  0  0  0
   -2.2952   -4.7111   -3.3982 O   0  0  0  0  0  0  0  0  0  0  0  0
   -0.4784   -6.4003   -3.7012 O   0  0  0  0  0  0  0  0  0  0  0  0
    1.3497   -4.2220   -2.9269 C   0  0  0  0  0  0  0  0  0  0  0  0
    1.5745   -5.0901   -4.0279 O   0  0  0  0  0  0  0  0  0  0  0  0
    2.8693   -5.1873   -4.6027 C   0  0  0  0  0  0  0  0  0  0  0  0
    2.3530   -3.4632   -2.3913 C   0  0  0  0  0  0  0  0  0  0  0  0
    2.0866   -2.5114   -1.4368 C   0  0  0  0  0  0  0  0  0  0  0  0
    3.2061   -1.6139   -0.9352 C   0  0  0  0  0  0  0  0  0  0  0  0
    4.2996   -2.4672   -0.3136 C   0  0  0  0  0  0  0  0  0  0  0  0
    5.4781   -2.4345   -0.7881 O   0  0  0  0  0  0  0  0  0  0  0  0
    3.9940   -3.3302    0.8365 N   0  0  0  0  0  0  0  0  0  0  0  0
    2.6309   -3.3680    1.3854 C   0  0  0  0  0  0  0  0  0  0  0  0
    2.4253   -3.3142    2.7495 C   0  0  0  0  0  0  0  0  0  0  0  0
    1.2007   -3.3478    3.2510 C   0  0  0  0  0  0  0  0  0  0  0  0
    1.0212   -3.2954    4.7091 N   0  0  0  0  0  0  0  0  0  0  0  0
    0.1348   -3.4274    2.4721 C   0  0  0  0  0  0  0  0  0  0  0  0
   -1.2509   -3.4559    3.0961 C   0  0  0  0  0  0  0  0  0  0  0  0
   -2.4005   -3.4795    3.6137 N   0  0  0  0  0  0  0  0  0  0  0  0
    0.2661   -3.4849    1.0981 C   0  0  0  0  0  0  0  0  0  0  0  0
   -0.8834   -3.5704    0.2689 O   0  0  0  0  0  0  0  0  0  0  0  0
   -0.7380   -3.6290   -1.1425 C   0  0  0  0  0  0  0  0  0  0  0  0
   -0.0252   -2.3785   -1.6308 C   0  0  0  0  0  0  0  0  0  0  0  0
    0.0772   -4.8559   -1.5173 C   0  0  0  0  0  0  0  0  0  0  0  0
    1.5354   -3.4580    0.5388 N   0  0  0  0  0  0  0  0  0  0  0  0
    0.6336    0.4935    0.7697 H   0  0  0  0  0  0  0  0  0  0  0  0
    0.6336    0.3557   -0.9722 H   0  0  0  0  0  0  0  0  0  0  0  0
    2.0603   -0.0783   -0.0615 H   0  0  0  0  0  0  0  0  0  0  0  0
   -1.2319   -2.8213   -1.2633 H   0  0  0  0  0  0  0  0  0  0  0  0
   -2.0071   -5.4694   -0.5432 H   0  0  0  0  0  0  0  0  0  0  0  0
   -2.3199   -6.9382   -1.4364 H   0  0  0  0  0  0  0  0  0  0  0  0
   -0.7369   -6.6504   -0.7550 H   0  0  0  0  0  0  0  0  0  0  0  0
    3.1717   -4.2269   -4.9648 H   0  0  0  0  0  0  0  0  0  0  0  0
    3.5640   -5.5241   -3.8619 H   0  0  0  0  0  0  0  0  0  0  0  0
    2.8478   -5.8840   -5.4145 H   0  0  0  0  0  0  0  0  0  0  0  0
    3.3602   -3.6127   -2.7201 H   0  0  0  0  0  0  0  0  0  0  0  0
    3.6107   -1.0567   -1.7542 H   0  0  0  0  0  0  0  0  0  0  0  0
    2.8197   -0.9385   -0.2006 H   0  0  0  0  0  0  0  0  0  0  0  0
    4.7278   -3.9029    1.2536 H   0  0  0  0  0  0  0  0  0  0  0  0
    3.2652   -3.2446    3.4087 H   0  0  0  0  0  0  0  0  0  0  0  0
    1.8347   -3.2339    5.3212 H   0  0  0  0  0  0  0  0  0  0  0  0
    0.0830   -3.3205    5.1086 H   0  0  0  0  0  0  0  0  0  0  0  0
   -1.7042   -3.6898   -1.5983 H   0  0  0  0  0  0  0  0  0  0  0  0
    0.9409   -2.3176   -1.1749 H   0  0  0  0  0  0  0  0  0  0  0  0
    0.0843   -2.4226   -2.6942 H   0  0  0  0  0  0  0  0  0  0  0  0
   -0.5991   -1.5148   -1.3669 H   0  0  0  0  0  0  0  0  0  0  0  0
   -0.4246   -5.7362   -1.1736 H   0  0  0  0  0  0  0  0  0  0  0  0
    0.1867   -4.9001   -2.5807 H   0  0  0  0  0  0  0  0  0  0  0  0
    1.0433   -4.7951   -1.0614 H   0  0  0  0  0  0  0  0  0  0  0  0
  1  2  1  0  0  0  0
  1 32  1  0  0  0  0
  1 33  1  0  0  0  0
  1 34  1  0  0  0  0
  2  3  1  0  0  0  0
  3  4  1  0  0  0  0
  3 14  2  0  0  0  0
  4  5  2  0  0  0  0
  4 35  1  0  0  0  0
  5  6  1  0  0  0  0
  5 10  1  0  0  0  0
  6  7  1  0  0  0  0
  6  8  2  0  0  0  0
  6  9  2  0  0  0  0
  7 36  1  0  0  0  0
  7 37  1  0  0  0  0
  7 38  1  0  0  0  0
 10 11  1  0  0  0  0
 10 13  2  0  0  0  0
 11 12  1  0  0  0  0
 12 39  1  0  0  0  0
 12 40  1  0  0  0  0
 12 41  1  0  0  0  0
 13 14  1  0  0  0  0
 13 42  1  0  0  0  0
 14 15  1  0  0  0  0
 15 16  1  0  0  0  0
 15 43  1  0  0  0  0
 15 44  1  0  0  0  0
 16 17  2  0  0  0  0
 16 18  1  0  0  0  0
 18 19  1  0  0  0  0
 18 45  1  0  0  0  0
 19 20  1  0  0  0  0
 19 31  2  0  0  0  0
 20 21  2  0  0  0  0
 20 46  1  0  0  0  0
 21 22  1  0  0  0  0
 21 23  1  0  0  0  0
 22 47  1  0  0  0  0
 22 48  1  0  0  0  0
 23 24  1  0  0  0  0
 23 26  2  0  0  0  0
 24 25  3  0  0  0  0
 26 27  1  0  0  0  0
 26 31  1  0  0  0  0
 27 28  1  0  0  0  0
 28 29  1  0  0  0  0
 28 30  1  0  0  0  0
 28 49  1  0  0  0  0
 29 50  1  0  0  0  0
 29 51  1  0  0  0  0
 29 52  1  0  0  0  0
 30 53  1  0  0  0  0
 30 54  1  0  0  0  0
 30 55  1  0  0  0  0
M  END
