REMARK  Name = 
REMARK  6 active torsions:
REMARK  status: ('A' for Active; 'I' for Inactive)
REMARK    1  A    between atoms: C_1  and  S_2
REMARK    2  A    between atoms: S_2  and  C_3
REMARK    3  A    between atoms: C_8  and  N_9
REMARK    4  A    between atoms: N_9  and  C_10
REMARK    5  A    between atoms: N_23  and  C_24
REMARK    6  A    between atoms: C_24  and  C_25
REMARK                            x       y       z     vdW  Elec       q    Type
REMARK                         _______ _______ _______ _____ _____    ______ ____
ROOT
ATOM      1  C   UNL     1       0.580   6.058   0.502  0.00  0.00    +0.000 A 
ATOM      2  N   UNL     1       1.653   6.747   0.967  0.00  0.00    +0.000 NA
ATOM      3  C   UNL     1       1.613   8.146   1.090  0.00  0.00    +0.000 A 
ATOM      4  N   UNL     1       2.792   8.868   1.588  0.00  0.00    +0.000 N 
ATOM      5  C   UNL     1       3.131   9.787   2.776  0.00  0.00    +0.000 C 
ATOM      6  C   UNL     1       4.580   9.332   2.604  0.00  0.00    +0.000 C 
ATOM      7  C   UNL     1       5.748  10.247   2.981  0.00  0.00    +0.000 C 
ATOM      8  N   UNL     1       6.541   8.962   3.283  0.00  0.00    +0.000 NA
ATOM      9  C   UNL     1       5.188   8.265   3.515  0.00  0.00    +0.000 C 
ATOM     10  C   UNL     1       4.256   9.030   1.140  0.00  0.00    +0.000 C 
ATOM     11  N   UNL     1       0.472   8.849   0.746  0.00  0.00    +0.000 NA
ATOM     12  C   UNL     1      -0.646   8.158   0.259  0.00  0.00    +0.000 A 
ATOM     13  C   UNL     1      -1.820   8.846  -0.105  0.00  0.00    +0.000 A 
ATOM     14  N   UNL     1      -1.882  10.309   0.018  0.00  0.00    +0.000 N 
ATOM     15  N   UNL     1      -2.894   8.159  -0.568  0.00  0.00    +0.000 NA
ATOM     16  C   UNL     1      -2.854   6.758  -0.693  0.00  0.00    +0.000 A 
ATOM     17  N   UNL     1      -1.714   6.052  -0.343  0.00  0.00    +0.000 NA
ATOM     18  C   UNL     1      -0.594   6.745   0.138  0.00  0.00    +0.000 A 
ATOM     19  H   UNL     1       7.078   8.598   2.496  0.00  0.00    +0.000 HD
ATOM     20  H   UNL     1      -1.075  10.827   0.366  0.00  0.00    +0.000 HD
ENDROOT
BRANCH   1  21
ATOM     21  N   UNL     1       0.652   4.593   0.407  0.00  0.00    +0.000 N 
ATOM     22  H   UNL     1       0.534   4.134  -0.497  0.00  0.00    +0.000 HD
BRANCH  21  28
ATOM     23  C   UNL     1       0.956   2.465   1.520  0.00  0.00    +0.000 A 
ATOM     24  C   UNL     1       1.333   1.686   2.602  0.00  0.00    +0.000 A 
ATOM     25  C   UNL     1       1.346   2.383   3.833  0.00  0.00    +0.000 A 
ATOM     26  C   UNL     1       1.365   3.698   3.950  0.00  0.00    +0.000 A 
ATOM     27  C   UNL     1       1.050   4.412   2.827  0.00  0.00    +0.000 A 
ATOM     28  C   UNL     1       0.892   3.788   1.613  0.00  0.00    +0.000 A 
BRANCH  23  30
ATOM     29  C   UNL     1       0.956  -0.014  -0.089  0.00  0.00    +0.000 C 
ATOM     30  S   UNL     1       0.353   1.690   0.000  0.00  0.00    +0.000 S 
ENDBRANCH  23  30
ENDBRANCH  21  28
ENDBRANCH   1  21
BRANCH  14  31
ATOM     31  C   UNL     1      -3.107  11.028  -0.362  0.00  0.00    +0.000 C 
BRANCH  31  32
ATOM     32  C   UNL     1      -3.646  11.782   0.842  0.00  0.00    +0.000 C 
ATOM     33  C   UNL     1      -3.794  13.304   0.789  0.00  0.00    +0.000 C 
ATOM     34  C   UNL     1      -5.039  12.413   0.779  0.00  0.00    +0.000 C 
ENDBRANCH  31  32
ENDBRANCH  14  31
TORSDOF 5
