REMARK  Name = 
REMARK  6 active torsions:
REMARK  status: ('A' for Active; 'I' for Inactive)
REMARK    1  A    between atoms: C_1  and  C_2
REMARK    2  A    between atoms: C_2  and  N_3
REMARK    3  A    between atoms: C_2  and  C_18
REMARK    4  A    between atoms: C_4  and  C_6
REMARK    5  A    between atoms: C_12  and  C_13
REMARK    6  A    between atoms: C_22  and  C_23
REMARK                            x       y       z     vdW  Elec       q    Type
REMARK                         _______ _______ _______ _____ _____    ______ ____
ROOT
ATOM      1  N   UNL     1       1.025   0.693   2.394  0.00  0.00    +0.000 N 
ATOM      2  C   UNL     1       0.070   1.529   3.136  0.00  0.00    +0.000 C 
ATOM      3  O   UNL     1       0.494   2.426   3.931  0.00  0.00    +0.000 OA
ATOM      4  H   UNL     1       2.028   0.833   2.518  0.00  0.00    +0.000 HD
ENDROOT
BRANCH   2   5
ATOM      5  C   UNL     1      -1.424   1.321   2.951  0.00  0.00    +0.000 A 
ATOM      6  C   UNL     1      -2.373   2.295   2.778  0.00  0.00    +0.000 A 
ATOM      7  N   UNL     1      -3.599   1.716   2.671  0.00  0.00    +0.000 N 
ATOM      8  C   UNL     1      -3.503   0.343   2.749  0.00  0.00    +0.000 A 
ATOM      9  N   UNL     1      -4.390  -0.649   2.690  0.00  0.00    +0.000 NA
ATOM     10  C   UNL     1      -4.000  -1.912   2.787  0.00  0.00    +0.000 A 
ATOM     11  C   UNL     1      -2.644  -2.230   2.972  0.00  0.00    +0.000 A 
ATOM     12  N   UNL     1      -1.757  -1.237   3.026  0.00  0.00    +0.000 NA
ATOM     13  C   UNL     1      -2.141   0.033   2.924  0.00  0.00    +0.000 A 
ATOM     14  H   UNL     1      -4.473   2.229   2.549  0.00  0.00    +0.000 HD
BRANCH  11  15
ATOM     15  C   UNL     1      -2.198  -3.677   3.108  0.00  0.00    +0.000 C 
ATOM     16  C   UNL     1      -2.435  -5.169   3.350  0.00  0.00    +0.000 C 
ATOM     17  C   UNL     1      -2.498  -4.605   1.928  0.00  0.00    +0.000 C 
ENDBRANCH  11  15
ENDBRANCH   2   5
BRANCH   1  19
ATOM     18  C   UNL     1       1.042  -0.057   0.071  0.00  0.00    +0.000 C 
ATOM     19  C   UNL     1       0.535  -0.344   1.475  0.00  0.00    +0.000 C 
BRANCH  19  20
ATOM     20  C   UNL     1      -0.985  -0.344   1.475  0.00  0.00    +0.000 C 
ATOM     21  O   UNL     1      -1.620  -1.388   1.823  0.00  0.00    +0.000 OA
ATOM     22  N   UNL     1      -1.720   0.864   1.072  0.00  0.00    +0.000 N 
ATOM     23  C   UNL     1      -2.911   1.670   1.619  0.00  0.00    +0.000 C 
ATOM     24  C   UNL     1      -3.131   2.169   0.182  0.00  0.00    +0.000 C 
ATOM     25  C   UNL     1      -1.636   1.904  -0.060  0.00  0.00    +0.000 C 
BRANCH  24  26
ATOM     26  C   UNL     1      -3.765   3.519  -0.111  0.00  0.00    +0.000 C 
ATOM     27  N   UNL     1      -4.291   4.639  -0.354  0.00  0.00    +0.000 NA
ENDBRANCH  24  26
ENDBRANCH  19  20
ENDBRANCH   1  19
TORSDOF 5
