
 OpenBabel03132512083D

 45 48  0  0  0  0  0  0  0  0999 V2000
    1.0349   -0.0481    0.0804 O   0  0  0  0  0  0  0  0  0  0  0  0
    2.3058   -0.0481    0.0804 C   0  0  0  0  0  0  0  0  0  0  0  0
    3.0158   -1.1371    0.6516 O   0  0  0  0  0  0  0  0  0  0  0  0
    3.0658    1.1177   -0.5309 C   0  0  0  0  0  0  0  0  0  0  0  0
    4.2042    0.9612   -1.2874 C   0  0  0  0  0  0  0  0  0  0  0  0
    4.6962    2.1807   -1.6702 N   0  0  0  0  0  0  0  0  0  0  0  0
    3.9067    3.1659   -1.1234 C   0  0  0  0  0  0  0  0  0  0  0  0
    4.0641    4.5551   -1.1752 C   0  0  0  0  0  0  0  0  0  0  0  0
    3.1418    5.2958   -0.4630 C   0  0  0  0  0  0  0  0  0  0  0  0
    3.2884    7.0351   -0.4529 Cl  0  0  0  0  0  0  0  0  0  0  0  0
    2.0997    4.7166    0.2821 C   0  0  0  0  0  0  0  0  0  0  0  0
    1.1317    5.6022    1.0496 C   0  0  0  0  0  0  0  0  0  0  0  0
    1.0056    5.3698    2.4093 C   0  0  0  0  0  0  0  0  0  0  0  0
   -0.1522    5.9451    2.9843 C   0  0  0  0  0  0  0  0  0  0  0  0
   -0.8683    6.9039    2.4259 C   0  0  0  0  0  0  0  0  0  0  0  0
   -1.8157    7.6585    3.1672 O   0  0  0  0  0  0  0  0  0  0  0  0
   -2.5654    8.6812    2.5281 C   0  0  0  0  0  0  0  0  0  0  0  0
   -1.6178    9.7296    1.9685 C   0  0  0  0  0  0  0  0  0  0  0  0
   -0.2560    9.5879    2.5901 C   0  0  0  0  0  0  0  0  0  0  0  0
    0.4167   10.9581    2.2754 C   0  0  0  0  0  0  0  0  0  0  0  0
   -0.7507   11.9465    2.3392 C   0  0  0  0  0  0  0  0  0  0  0  0
   -1.9989   11.0943    2.3768 N   0  0  0  0  0  0  0  0  0  0  0  0
   -0.6486    7.1309    1.0956 C   0  0  0  0  0  0  0  0  0  0  0  0
    0.3812    6.5076    0.4331 C   0  0  0  0  0  0  0  0  0  0  0  0
    1.9544    3.3389    0.3173 C   0  0  0  0  0  0  0  0  0  0  0  0
    2.8607    2.5372   -0.3995 C   0  0  0  0  0  0  0  0  0  0  0  0
    4.0158   -1.1371    0.6516 H   0  0  0  0  0  0  0  0  0  0  0  0
    4.6435    0.0191   -1.5411 H   0  0  0  0  0  0  0  0  0  0  0  0
    5.5126    2.3332   -2.2624 H   0  0  0  0  0  0  0  0  0  0  0  0
    4.8520    5.0161   -1.7334 H   0  0  0  0  0  0  0  0  0  0  0  0
    1.7190    4.8063    2.9736 H   0  0  0  0  0  0  0  0  0  0  0  0
   -0.4695    5.5777    3.9378 H   0  0  0  0  0  0  0  0  0  0  0  0
   -3.1395    8.2573    1.7308 H   0  0  0  0  0  0  0  0  0  0  0  0
   -3.2233    9.1376    3.2378 H   0  0  0  0  0  0  0  0  0  0  0  0
   -1.6416    9.5879    0.9081 H   0  0  0  0  0  0  0  0  0  0  0  0
   -0.2909    9.3654    3.6361 H   0  0  0  0  0  0  0  0  0  0  0  0
    0.2879    8.7811    2.1450 H   0  0  0  0  0  0  0  0  0  0  0  0
    1.2085   11.2011    2.9528 H   0  0  0  0  0  0  0  0  0  0  0  0
    0.8613   10.9523    1.3022 H   0  0  0  0  0  0  0  0  0  0  0  0
   -0.6818   12.5881    3.1927 H   0  0  0  0  0  0  0  0  0  0  0  0
   -0.7543   12.5773    1.4749 H   0  0  0  0  0  0  0  0  0  0  0  0
   -2.3825   11.0804    3.3218 H   0  0  0  0  0  0  0  0  0  0  0  0
   -1.2877    7.8037    0.5629 H   0  0  0  0  0  0  0  0  0  0  0  0
    0.5801    6.7540   -0.5890 H   0  0  0  0  0  0  0  0  0  0  0  0
    1.1635    2.8912    0.8820 H   0  0  0  0  0  0  0  0  0  0  0  0
  1  2  2  0  0  0  0
  2  3  1  0  0  0  0
  2  4  1  0  0  0  0
  3 27  1  0  0  0  0
  4  5  2  0  0  0  0
  4 26  1  0  0  0  0
  5  6  1  0  0  0  0
  5 28  1  0  0  0  0
  6  7  1  0  0  0  0
  6 29  1  0  0  0  0
  7  8  1  0  0  0  0
  7 26  2  0  0  0  0
  8  9  2  0  0  0  0
  8 30  1  0  0  0  0
  9 10  1  0  0  0  0
  9 11  1  0  0  0  0
 11 12  1  0  0  0  0
 11 25  2  0  0  0  0
 12 13  1  0  0  0  0
 12 24  2  0  0  0  0
 13 14  2  0  0  0  0
 13 31  1  0  0  0  0
 14 15  1  0  0  0  0
 14 32  1  0  0  0  0
 15 16  1  0  0  0  0
 15 23  2  0  0  0  0
 16 17  1  0  0  0  0
 17 18  1  0  0  0  0
 17 33  1  0  0  0  0
 17 34  1  0  0  0  0
 18 19  1  0  0  0  0
 18 22  1  0  0  0  0
 18 35  1  0  0  0  0
 19 20  1  0  0  0  0
 19 36  1  0  0  0  0
 19 37  1  0  0  0  0
 20 21  1  0  0  0  0
 20 38  1  0  0  0  0
 20 39  1  0  0  0  0
 21 22  1  0  0  0  0
 21 40  1  0  0  0  0
 21 41  1  0  0  0  0
 22 42  1  0  0  0  0
 23 24  1  0  0  0  0
 23 43  1  0  0  0  0
 24 44  1  0  0  0  0
 25 26  1  0  0  0  0
 25 45  1  0  0  0  0
M  END
