
 OpenBabel03132512083D

 39 42  0  0  0  0  0  0  0  0999 V2000
    0.9305    0.0098   -0.0712 O   0  0  0  0  0  0  0  0  0  0  0  0
    2.2014    0.0098   -0.0712 C   0  0  0  0  0  0  0  0  0  0  0  0
    2.9114   -0.2452   -1.2742 O   0  0  0  0  0  0  0  0  0  0  0  0
    2.9614    0.2827    1.2165 C   0  0  0  0  0  0  0  0  0  0  0  0
    4.0226    1.1435    1.3769 C   0  0  0  0  0  0  0  0  0  0  0  0
    4.4034    1.1946    2.6914 N   0  0  0  0  0  0  0  0  0  0  0  0
    3.6206    0.3217    3.4114 C   0  0  0  0  0  0  0  0  0  0  0  0
    3.6937   -0.0197    4.7662 C   0  0  0  0  0  0  0  0  0  0  0  0
    2.8099   -0.9901    5.1945 C   0  0  0  0  0  0  0  0  0  0  0  0
    2.8590   -1.4931    6.8652 Cl  0  0  0  0  0  0  0  0  0  0  0  0
    1.8843   -1.6182    4.3427 C   0  0  0  0  0  0  0  0  0  0  0  0
    0.9526   -2.6873    4.8899 C   0  0  0  0  0  0  0  0  0  0  0  0
    0.9282   -3.9668    4.3599 C   0  0  0  0  0  0  0  0  0  0  0  0
   -0.2091   -4.7207    4.7341 C   0  0  0  0  0  0  0  0  0  0  0  0
   -0.9979   -4.4307    5.7528 C   0  0  0  0  0  0  0  0  0  0  0  0
   -1.9861   -5.4405    6.3133 C   0  0  0  0  0  0  0  0  0  0  0  0
   -1.1978   -6.6367    5.8055 C   0  0  0  0  0  0  0  0  0  0  0  0
   -0.1155   -6.4584    5.1635 O   0  0  0  0  0  0  0  0  0  0  0  0
   -1.6705   -7.9535    6.0484 O   0  0  0  0  0  0  0  0  0  0  0  0
   -2.6415   -4.9070    7.5888 C   0  0  0  0  0  0  0  0  0  0  0  0
   -3.4988   -5.2108    6.3575 C   0  0  0  0  0  0  0  0  0  0  0  0
   -0.8780   -3.1732    6.2760 C   0  0  0  0  0  0  0  0  0  0  0  0
    0.1276   -2.3308    5.8674 C   0  0  0  0  0  0  0  0  0  0  0  0
    1.8208   -1.2633    3.0046 C   0  0  0  0  0  0  0  0  0  0  0  0
    2.6918   -0.2721    2.5180 C   0  0  0  0  0  0  0  0  0  0  0  0
    3.9114   -0.2452   -1.2742 H   0  0  0  0  0  0  0  0  0  0  0  0
    4.4854    1.6954    0.5856 H   0  0  0  0  0  0  0  0  0  0  0  0
    5.1444    1.7823    3.0733 H   0  0  0  0  0  0  0  0  0  0  0  0
    4.3927    0.4436    5.4307 H   0  0  0  0  0  0  0  0  0  0  0  0
    1.6995   -4.3502    3.7251 H   0  0  0  0  0  0  0  0  0  0  0  0
   -0.4465   -5.5861    4.1513 H   0  0  0  0  0  0  0  0  0  0  0  0
   -1.1518   -8.7405    5.7143 H   0  0  0  0  0  0  0  0  0  0  0  0
   -2.6571   -5.2097    8.6150 H   0  0  0  0  0  0  0  0  0  0  0  0
   -2.4786   -3.8933    7.8903 H   0  0  0  0  0  0  0  0  0  0  0  0
   -4.1977   -4.6566    5.7665 H   0  0  0  0  0  0  0  0  0  0  0  0
   -4.1669   -6.0465    6.3637 H   0  0  0  0  0  0  0  0  0  0  0  0
   -1.5772   -2.8404    7.0144 H   0  0  0  0  0  0  0  0  0  0  0  0
    0.2470   -1.3788    6.3411 H   0  0  0  0  0  0  0  0  0  0  0  0
    1.1188   -1.7369    2.3506 H   0  0  0  0  0  0  0  0  0  0  0  0
  1  2  2  0  0  0  0
  2  3  1  0  0  0  0
  2  4  1  0  0  0  0
  3 26  1  0  0  0  0
  4  5  2  0  0  0  0
  4 25  1  0  0  0  0
  5  6  1  0  0  0  0
  5 27  1  0  0  0  0
  6  7  1  0  0  0  0
  6 28  1  0  0  0  0
  7  8  1  0  0  0  0
  7 25  2  0  0  0  0
  8  9  2  0  0  0  0
  8 29  1  0  0  0  0
  9 10  1  0  0  0  0
  9 11  1  0  0  0  0
 11 12  1  0  0  0  0
 11 24  2  0  0  0  0
 12 13  1  0  0  0  0
 12 23  2  0  0  0  0
 13 14  2  0  0  0  0
 13 30  1  0  0  0  0
 14 15  1  0  0  0  0
 14 31  1  0  0  0  0
 15 16  1  0  0  0  0
 15 22  2  0  0  0  0
 16 17  1  0  0  0  0
 16 20  1  0  0  0  0
 16 21  1  0  0  0  0
 17 18  2  0  0  0  0
 17 19  1  0  0  0  0
 19 32  1  0  0  0  0
 20 21  1  0  0  0  0
 20 33  1  0  0  0  0
 20 34  1  0  0  0  0
 21 35  1  0  0  0  0
 21 36  1  0  0  0  0
 22 23  1  0  0  0  0
 22 37  1  0  0  0  0
 23 38  1  0  0  0  0
 24 25  1  0  0  0  0
 24 39  1  0  0  0  0
M  END
