
 OpenBabel03132512083D

 58 61  0  0  0  0  0  0  0  0999 V2000
    0.9426   -0.0654    0.0492 C   0  0  0  0  0  0  0  0  0  0  0  0
    0.4693   -0.3805    1.3504 O   0  0  0  0  0  0  0  0  0  0  0  0
    0.9426   -1.6648    1.7282 C   0  0  0  0  0  0  0  0  0  0  0  0
    2.2070   -1.0459    1.1364 C   0  0  0  0  0  0  0  0  0  0  0  0
    2.1421   -1.0278   -0.3755 C   0  0  0  0  0  0  0  0  0  0  0  0
    1.9605   -2.3878   -0.8993 N   0  0  0  0  0  0  0  0  0  0  0  0
    1.9564   -2.3510   -2.3688 C   0  0  0  0  0  0  0  0  0  0  0  0
    0.8178   -1.4667   -2.8503 C   0  0  0  0  0  0  0  0  0  0  0  0
    1.0057   -0.0589   -2.3088 C   0  0  0  0  0  0  0  0  0  0  0  0
    2.2411    0.4657   -2.7726 O   0  0  0  0  0  0  0  0  0  0  0  0
    3.4576   -0.1915   -2.4493 C   0  0  0  0  0  0  0  0  0  0  0  0
    4.5373    0.5669   -2.0278 C   0  0  0  0  0  0  0  0  0  0  0  0
    5.7651   -0.1364   -2.0233 C   0  0  0  0  0  0  0  0  0  0  0  0
    5.8746   -1.4521   -2.0520 C   0  0  0  0  0  0  0  0  0  0  0  0
    7.1770   -2.1551   -1.7057 C   0  0  0  0  0  0  0  0  0  0  0  0
    7.7249   -1.9687   -0.4472 C   0  0  0  0  0  0  0  0  0  0  0  0
    9.0635   -2.4128   -0.3332 C   0  0  0  0  0  0  0  0  0  0  0  0
    9.8392   -1.9242    0.7775 C   0  0  0  0  0  0  0  0  0  0  0  0
    9.2144   -0.9648    1.7773 C   0  0  0  0  0  0  0  0  0  0  0  0
    9.8990   -0.5336    2.7574 O   0  0  0  0  0  0  0  0  0  0  0  0
    7.8659   -0.5503    1.6162 O   0  0  0  0  0  0  0  0  0  0  0  0
   11.2070   -2.3446    0.9408 C   0  0  0  0  0  0  0  0  0  0  0  0
   10.8443   -3.8883   -0.8565 N   0  0  0  0  0  0  0  0  0  0  0  0
    9.6509   -3.2443   -1.1744 C   0  0  0  0  0  0  0  0  0  0  0  0
    9.0246   -3.4389   -2.3741 C   0  0  0  0  0  0  0  0  0  0  0  0
    7.7714   -2.9266   -2.6083 C   0  0  0  0  0  0  0  0  0  0  0  0
    6.9370   -3.3005   -4.1355 Cl  0  0  0  0  0  0  0  0  0  0  0  0
    4.7534   -2.1480   -2.4099 C   0  0  0  0  0  0  0  0  0  0  0  0
    3.5450   -1.5118   -2.5610 C   0  0  0  0  0  0  0  0  0  0  0  0
    0.6882   -2.9257   -0.4212 C   0  0  0  0  0  0  0  0  0  0  0  0
    0.6771   -3.0294    1.0949 C   0  0  0  0  0  0  0  0  0  0  0  0
    0.5859    0.9024   -0.2354 H   0  0  0  0  0  0  0  0  0  0  0  0
    0.5859   -0.7958   -0.6466 H   0  0  0  0  0  0  0  0  0  0  0  0
    2.0126   -0.0654    0.0492 H   0  0  0  0  0  0  0  0  0  0  0  0
    0.6542   -2.0392    2.6882 H   0  0  0  0  0  0  0  0  0  0  0  0
    2.2912   -0.0385    1.4872 H   0  0  0  0  0  0  0  0  0  0  0  0
    3.0555   -1.6206    1.4439 H   0  0  0  0  0  0  0  0  0  0  0  0
    1.3106   -0.4265   -0.6788 H   0  0  0  0  0  0  0  0  0  0  0  0
    3.0528   -0.6204   -0.7620 H   0  0  0  0  0  0  0  0  0  0  0  0
    2.8873   -1.9557   -2.7183 H   0  0  0  0  0  0  0  0  0  0  0  0
    1.8241   -3.3420   -2.7500 H   0  0  0  0  0  0  0  0  0  0  0  0
    0.8148   -1.4399   -3.9200 H   0  0  0  0  0  0  0  0  0  0  0  0
   -0.1131   -1.8619   -2.5008 H   0  0  0  0  0  0  0  0  0  0  0  0
    0.2042    0.5636   -2.6477 H   0  0  0  0  0  0  0  0  0  0  0  0
    1.0087   -0.0857   -1.2391 H   0  0  0  0  0  0  0  0  0  0  0  0
    4.4508    1.5917   -1.7325 H   0  0  0  0  0  0  0  0  0  0  0  0
    6.6676    0.4378   -1.9948 H   0  0  0  0  0  0  0  0  0  0  0  0
    7.1849   -1.5287    0.3650 H   0  0  0  0  0  0  0  0  0  0  0  0
    7.4548    0.0809    2.2739 H   0  0  0  0  0  0  0  0  0  0  0  0
   11.7834   -1.9815    1.7660 H   0  0  0  0  0  0  0  0  0  0  0  0
   11.2744   -4.5252   -1.5271 H   0  0  0  0  0  0  0  0  0  0  0  0
    9.5175   -3.9982   -3.1416 H   0  0  0  0  0  0  0  0  0  0  0  0
    4.8180   -3.2033   -2.5747 H   0  0  0  0  0  0  0  0  0  0  0  0
    2.6664   -2.0854   -2.7706 H   0  0  0  0  0  0  0  0  0  0  0  0
    0.5563   -3.9052   -0.8312 H   0  0  0  0  0  0  0  0  0  0  0  0
   -0.1048   -2.2790   -0.7337 H   0  0  0  0  0  0  0  0  0  0  0  0
    1.4464   -3.7074    1.4004 H   0  0  0  0  0  0  0  0  0  0  0  0
   -0.2792   -3.3862    1.4161 H   0  0  0  0  0  0  0  0  0  0  0  0
  1  2  1  0  0  0  0
  1 32  1  0  0  0  0
  1 33  1  0  0  0  0
  1 34  1  0  0  0  0
  2  3  1  0  0  0  0
  3  4  1  0  0  0  0
  3 31  1  0  0  0  0
  3 35  1  0  0  0  0
  4  5  1  0  0  0  0
  4 36  1  0  0  0  0
  4 37  1  0  0  0  0
  5  6  1  0  0  0  0
  5 38  1  0  0  0  0
  5 39  1  0  0  0  0
  6  7  1  0  0  0  0
  6 30  1  0  0  0  0
  7  8  1  0  0  0  0
  7 40  1  0  0  0  0
  7 41  1  0  0  0  0
  8  9  1  0  0  0  0
  8 42  1  0  0  0  0
  8 43  1  0  0  0  0
  9 10  1  0  0  0  0
  9 44  1  0  0  0  0
  9 45  1  0  0  0  0
 10 11  1  0  0  0  0
 11 12  1  0  0  0  0
 11 29  2  0  0  0  0
 12 13  2  0  0  0  0
 12 46  1  0  0  0  0
 13 14  1  0  0  0  0
 13 47  1  0  0  0  0
 14 15  1  0  0  0  0
 14 28  2  0  0  0  0
 15 16  1  0  0  0  0
 15 26  2  0  0  0  0
 16 17  2  0  0  0  0
 16 48  1  0  0  0  0
 17 18  1  0  0  0  0
 17 24  1  0  0  0  0
 18 19  1  0  0  0  0
 18 22  2  0  0  0  0
 19 20  2  0  0  0  0
 19 21  1  0  0  0  0
 21 49  1  0  0  0  0
 22 23  1  0  0  0  0
 22 50  1  0  0  0  0
 23 24  1  0  0  0  0
 23 51  1  0  0  0  0
 24 25  2  0  0  0  0
 25 26  1  0  0  0  0
 25 52  1  0  0  0  0
 26 27  1  0  0  0  0
 28 29  1  0  0  0  0
 28 53  1  0  0  0  0
 29 54  1  0  0  0  0
 30 31  1  0  0  0  0
 30 55  1  0  0  0  0
 30 56  1  0  0  0  0
 31 57  1  0  0  0  0
 31 58  1  0  0  0  0
M  END
