
 OpenBabel03132514253D

 40 43  0  0  0  0  0  0  0  0999 V2000
    0.9276    0.0289   -0.0626 O   0  0  0  0  0  0  0  0  0  0  0  0
    2.1985    0.0289   -0.0626 C   0  0  0  0  0  0  0  0  0  0  0  0
    2.9085    0.8765   -0.9536 O   0  0  0  0  0  0  0  0  0  0  0  0
    2.9585   -0.8784    0.8911 C   0  0  0  0  0  0  0  0  0  0  0  0
    3.8952   -0.5765    1.7418 C   0  0  0  0  0  0  0  0  0  0  0  0
    4.2067   -1.6877    2.5310 N   0  0  0  0  0  0  0  0  0  0  0  0
    3.4123   -2.7479    2.1449 C   0  0  0  0  0  0  0  0  0  0  0  0
    3.2956   -4.0652    2.5737 C   0  0  0  0  0  0  0  0  0  0  0  0
    2.3805   -4.9040    1.9780 C   0  0  0  0  0  0  0  0  0  0  0  0
    2.2654   -6.1603    2.3990 F   0  0  0  0  0  0  0  0  0  0  0  0
    1.5731   -4.4464    0.9364 C   0  0  0  0  0  0  0  0  0  0  0  0
    0.5772   -5.3893    0.2810 C   0  0  0  0  0  0  0  0  0  0  0  0
    0.6771   -5.5844   -1.0820 C   0  0  0  0  0  0  0  0  0  0  0  0
   -0.1936   -6.3494   -1.7216 C   0  0  0  0  0  0  0  0  0  0  0  0
   -1.1812   -6.9566   -1.0851 C   0  0  0  0  0  0  0  0  0  0  0  0
   -2.1512   -7.8305   -1.8634 C   0  0  0  0  0  0  0  0  0  0  0  0
   -1.0068   -7.9147   -2.8601 C   0  0  0  0  0  0  0  0  0  0  0  0
   -0.6845   -6.6111   -3.3221 O   0  0  0  0  0  0  0  0  0  0  0  0
   -3.1236   -8.8446   -1.2576 C   0  0  0  0  0  0  0  0  0  0  0  0
   -3.6600   -7.5852   -1.9428 C   0  0  0  0  0  0  0  0  0  0  0  0
   -1.3415   -6.8060    0.2787 C   0  0  0  0  0  0  0  0  0  0  0  0
   -0.4505   -6.0063    0.9797 C   0  0  0  0  0  0  0  0  0  0  0  0
    1.6744   -3.1410    0.4981 C   0  0  0  0  0  0  0  0  0  0  0  0
    0.8988   -2.7055   -0.4906 F   0  0  0  0  0  0  0  0  0  0  0  0
    2.5969   -2.2796    1.0996 C   0  0  0  0  0  0  0  0  0  0  0  0
    3.9085    0.8765   -0.9536 H   0  0  0  0  0  0  0  0  0  0  0  0
    4.3601    0.3836    1.8255 H   0  0  0  0  0  0  0  0  0  0  0  0
    4.9075   -1.7110    3.2718 H   0  0  0  0  0  0  0  0  0  0  0  0
    3.9166   -4.4271    3.3662 H   0  0  0  0  0  0  0  0  0  0  0  0
    1.4671   -5.1120   -1.6275 H   0  0  0  0  0  0  0  0  0  0  0  0
   -0.0960   -6.4796   -2.7791 H   0  0  0  0  0  0  0  0  0  0  0  0
   -0.1508   -8.3464   -2.3848 H   0  0  0  0  0  0  0  0  0  0  0  0
   -1.2998   -8.5245   -3.6891 H   0  0  0  0  0  0  0  0  0  0  0  0
   -1.4844   -6.2077   -3.7663 H   0  0  0  0  0  0  0  0  0  0  0  0
   -3.2882   -9.8958   -1.3707 H   0  0  0  0  0  0  0  0  0  0  0  0
   -3.1960   -8.9475   -0.1950 H   0  0  0  0  0  0  0  0  0  0  0  0
   -4.3132   -6.7876   -1.6563 H   0  0  0  0  0  0  0  0  0  0  0  0
   -4.1658   -7.6616   -2.8826 H   0  0  0  0  0  0  0  0  0  0  0  0
   -2.1426   -7.2997    0.7880 H   0  0  0  0  0  0  0  0  0  0  0  0
   -0.5536   -5.8685    2.0357 H   0  0  0  0  0  0  0  0  0  0  0  0
  1  2  2  0  0  0  0
  2  3  1  0  0  0  0
  2  4  1  0  0  0  0
  3 26  1  0  0  0  0
  4  5  2  0  0  0  0
  4 25  1  0  0  0  0
  5  6  1  0  0  0  0
  5 27  1  0  0  0  0
  6  7  1  0  0  0  0
  6 28  1  0  0  0  0
  7  8  1  0  0  0  0
  7 25  2  0  0  0  0
  8  9  2  0  0  0  0
  8 29  1  0  0  0  0
  9 10  1  0  0  0  0
  9 11  1  0  0  0  0
 11 12  1  0  0  0  0
 11 23  2  0  0  0  0
 12 13  1  0  0  0  0
 12 22  2  0  0  0  0
 13 14  2  0  0  0  0
 13 30  1  0  0  0  0
 14 15  1  0  0  0  0
 14 31  1  0  0  0  0
 15 16  1  0  0  0  0
 15 21  2  0  0  0  0
 16 17  1  0  0  0  0
 16 19  1  0  0  0  0
 16 20  1  0  0  0  0
 17 18  1  0  0  0  0
 17 32  1  0  0  0  0
 17 33  1  0  0  0  0
 18 34  1  0  0  0  0
 19 20  1  0  0  0  0
 19 35  1  0  0  0  0
 19 36  1  0  0  0  0
 20 37  1  0  0  0  0
 20 38  1  0  0  0  0
 21 22  1  0  0  0  0
 21 39  1  0  0  0  0
 22 40  1  0  0  0  0
 23 24  1  0  0  0  0
 23 25  1  0  0  0  0
M  END
