
 OpenBabel03132514253D

 70 75  0  0  0  0  0  0  0  0999 V2000
    1.0513   -0.0529    0.0676 C   0  0  0  0  0  0  0  0  0  0  0  0
    0.5446    0.8735    1.1609 C   0  0  0  0  0  0  0  0  0  0  0  0
    1.0346    2.2372    0.9137 N   0  0  0  0  0  0  0  0  0  0  0  0
    0.5446    3.1331    1.9711 C   0  0  0  0  0  0  0  0  0  0  0  0
    2.7946    2.2372    0.9137 S   0  0  0  0  0  0  0  0  0  0  0  0
    3.3980    1.6612    2.5201 C   0  0  0  0  0  0  0  0  0  0  0  0
    3.3048    1.3044   -0.1871 O   0  0  0  0  0  0  0  0  0  0  0  0
    3.3197    3.6985    0.6488 N   0  0  0  0  0  0  0  0  0  0  0  0
    4.7649    3.9628    0.6009 C   0  0  0  0  0  0  0  0  0  0  0  0
    5.2757    5.0633    1.2692 C   0  0  0  0  0  0  0  0  0  0  0  0
    6.6089    5.3802    0.9165 C   0  0  0  0  0  0  0  0  0  0  0  0
    7.4400    4.5526    0.3097 C   0  0  0  0  0  0  0  0  0  0  0  0
    8.9367    4.8134    0.2612 C   0  0  0  0  0  0  0  0  0  0  0  0
    9.6477    4.9073    1.4462 C   0  0  0  0  0  0  0  0  0  0  0  0
   10.9513    5.4354    1.2923 C   0  0  0  0  0  0  0  0  0  0  0  0
   11.6010    5.5038    0.1446 C   0  0  0  0  0  0  0  0  0  0  0  0
   13.0987    5.7567    0.0859 C   0  0  0  0  0  0  0  0  0  0  0  0
   13.9688    4.8746    0.6951 N   0  0  0  0  0  0  0  0  0  0  0  0
   15.3451    5.1153    0.6444 C   0  0  0  0  0  0  0  0  0  0  0  0
   16.5157    4.4113    1.1656 N   0  0  0  0  0  0  0  0  0  0  0  0
   17.5736    5.0859    0.8220 C   0  0  0  0  0  0  0  0  0  0  0  0
   18.9085    4.7230    1.1429 O   0  0  0  0  0  0  0  0  0  0  0  0
   19.1630    3.5447    1.8933 C   0  0  0  0  0  0  0  0  0  0  0  0
   18.6747    2.5058    1.1966 C   0  0  0  0  0  0  0  0  0  0  0  0
   17.2662    2.3237    1.5121 O   0  0  0  0  0  0  0  0  0  0  0  0
   17.0419    2.9625    2.8960 C   0  0  0  0  0  0  0  0  0  0  0  0
   16.8939    1.8680    3.9323 C   0  0  0  0  0  0  0  0  0  0  0  0
   16.1676    0.7669    3.4065 O   0  0  0  0  0  0  0  0  0  0  0  0
   18.1509    1.4921    4.2959 C   0  0  0  0  0  0  0  0  0  0  0  0
   19.0542    2.6293    4.2072 O   0  0  0  0  0  0  0  0  0  0  0  0
   18.4171    3.6161    3.2104 C   0  0  0  0  0  0  0  0  0  0  0  0
   17.2065    6.2199    0.0912 N   0  0  0  0  0  0  0  0  0  0  0  0
   15.8319    6.2512   -0.0261 C   0  0  0  0  0  0  0  0  0  0  0  0
   14.9408    7.1278   -0.6346 C   0  0  0  0  0  0  0  0  0  0  0  0
   13.5877    6.8790   -0.5831 C   0  0  0  0  0  0  0  0  0  0  0  0
   12.4533    7.9981   -1.3764 Cl  0  0  0  0  0  0  0  0  0  0  0  0
   10.8540    5.3348   -0.9881 C   0  0  0  0  0  0  0  0  0  0  0  0
    9.5379    4.9469   -0.9152 C   0  0  0  0  0  0  0  0  0  0  0  0
    6.8819    3.4486   -0.2725 C   0  0  0  0  0  0  0  0  0  0  0  0
    5.5559    3.1432   -0.0816 C   0  0  0  0  0  0  0  0  0  0  0  0
    0.6946    0.2876   -0.8820 H   0  0  0  0  0  0  0  0  0  0  0  0
    0.6947   -1.0455    0.2475 H   0  0  0  0  0  0  0  0  0  0  0  0
    2.1213   -0.0529    0.0676 H   0  0  0  0  0  0  0  0  0  0  0  0
   -0.5254    0.8735    1.1609 H   0  0  0  0  0  0  0  0  0  0  0  0
    0.9013    0.5330    2.1105 H   0  0  0  0  0  0  0  0  0  0  0  0
    0.9013    2.7927    2.9207 H   0  0  0  0  0  0  0  0  0  0  0  0
    0.9013    4.1258    1.7912 H   0  0  0  0  0  0  0  0  0  0  0  0
   -0.5254    3.1331    1.9711 H   0  0  0  0  0  0  0  0  0  0  0  0
    3.0413    0.6686    2.7000 H   0  0  0  0  0  0  0  0  0  0  0  0
    4.4680    1.6612    2.5201 H   0  0  0  0  0  0  0  0  0  0  0  0
    3.0413    2.3134    3.2898 H   0  0  0  0  0  0  0  0  0  0  0  0
    4.7132    5.6229    1.9871 H   0  0  0  0  0  0  0  0  0  0  0  0
    6.9686    6.3585    1.1583 H   0  0  0  0  0  0  0  0  0  0  0  0
    9.2474    4.6077    2.3922 H   0  0  0  0  0  0  0  0  0  0  0  0
   11.4451    5.8050    2.1666 H   0  0  0  0  0  0  0  0  0  0  0  0
   20.2124    3.4399    2.0739 H   0  0  0  0  0  0  0  0  0  0  0  0
   18.7815    2.6992    0.1496 H   0  0  0  0  0  0  0  0  0  0  0  0
   19.2147    1.6189    1.4546 H   0  0  0  0  0  0  0  0  0  0  0  0
   16.1937    3.6148    2.9067 H   0  0  0  0  0  0  0  0  0  0  0  0
   16.3600    2.2370    4.7830 H   0  0  0  0  0  0  0  0  0  0  0  0
   16.6466    0.4023    2.6080 H   0  0  0  0  0  0  0  0  0  0  0  0
   18.4915    0.7202    3.6379 H   0  0  0  0  0  0  0  0  0  0  0  0
   18.1353    1.1294    5.3024 H   0  0  0  0  0  0  0  0  0  0  0  0
   18.3979    4.6151    3.5931 H   0  0  0  0  0  0  0  0  0  0  0  0
   17.8502    6.9117   -0.2929 H   0  0  0  0  0  0  0  0  0  0  0  0
   15.3065    7.9956   -1.1427 H   0  0  0  0  0  0  0  0  0  0  0  0
   11.3007    5.5072   -1.9450 H   0  0  0  0  0  0  0  0  0  0  0  0
    8.9925    4.7506   -1.8146 H   0  0  0  0  0  0  0  0  0  0  0  0
    7.4863    2.8133   -0.8856 H   0  0  0  0  0  0  0  0  0  0  0  0
    5.1570    2.2366   -0.4866 H   0  0  0  0  0  0  0  0  0  0  0  0
  1  2  1  0  0  0  0
  1 41  1  0  0  0  0
  1 42  1  0  0  0  0
  1 43  1  0  0  0  0
  2  3  1  0  0  0  0
  2 44  1  0  0  0  0
  2 45  1  0  0  0  0
  3  4  1  0  0  0  0
  3  5  1  0  0  0  0
  4 46  1  0  0  0  0
  4 47  1  0  0  0  0
  4 48  1  0  0  0  0
  5  6  1  0  0  0  0
  5  7  2  0  0  0  0
  5  8  2  0  0  0  0
  6 49  1  0  0  0  0
  6 50  1  0  0  0  0
  6 51  1  0  0  0  0
  8  9  1  0  0  0  0
  9 10  1  0  0  0  0
  9 40  2  0  0  0  0
 10 11  2  0  0  0  0
 10 52  1  0  0  0  0
 11 12  1  0  0  0  0
 11 53  1  0  0  0  0
 12 13  1  0  0  0  0
 12 39  2  0  0  0  0
 13 14  1  0  0  0  0
 13 38  2  0  0  0  0
 14 15  2  0  0  0  0
 14 54  1  0  0  0  0
 15 16  1  0  0  0  0
 15 55  1  0  0  0  0
 16 17  1  0  0  0  0
 16 37  2  0  0  0  0
 17 18  1  0  0  0  0
 17 35  2  0  0  0  0
 18 19  2  0  0  0  0
 19 20  1  0  0  0  0
 19 33  1  0  0  0  0
 20 21  2  0  0  0  0
 21 22  1  0  0  0  0
 21 32  1  0  0  0  0
 22 23  1  0  0  0  0
 23 24  1  0  0  0  0
 23 31  1  0  0  0  0
 23 56  1  0  0  0  0
 24 25  1  0  0  0  0
 24 57  1  0  0  0  0
 24 58  1  0  0  0  0
 25 26  1  0  0  0  0
 26 27  1  0  0  0  0
 26 31  1  0  0  0  0
 26 59  1  0  0  0  0
 27 28  1  0  0  0  0
 27 29  1  0  0  0  0
 27 60  1  0  0  0  0
 28 61  1  0  0  0  0
 29 30  1  0  0  0  0
 29 62  1  0  0  0  0
 29 63  1  0  0  0  0
 30 31  1  0  0  0  0
 31 64  1  0  0  0  0
 32 33  1  0  0  0  0
 32 65  1  0  0  0  0
 33 34  2  0  0  0  0
 34 35  1  0  0  0  0
 34 66  1  0  0  0  0
 35 36  1  0  0  0  0
 37 38  1  0  0  0  0
 37 67  1  0  0  0  0
 38 68  1  0  0  0  0
 39 40  1  0  0  0  0
 39 69  1  0  0  0  0
 40 70  1  0  0  0  0
M  END
