
 OpenBabel03132512093D

 62 65  0  0  0  0  0  0  0  0999 V2000
    1.0007    0.0406   -0.0914 C   0  0  0  0  0  0  0  0  0  0  0  0
    0.5273    0.0852   -1.4294 O   0  0  0  0  0  0  0  0  0  0  0  0
    0.8704    1.1787   -2.2678 C   0  0  0  0  0  0  0  0  0  0  0  0
   -0.0992    1.6117   -3.1289 C   0  0  0  0  0  0  0  0  0  0  0  0
    0.1958    2.6039   -4.0905 C   0  0  0  0  0  0  0  0  0  0  0  0
   -0.7911    3.0545   -4.9298 N   0  0  0  0  0  0  0  0  0  0  0  0
   -0.4474    3.9690   -5.7944 C   0  0  0  0  0  0  0  0  0  0  0  0
    0.7964    4.5148   -5.9627 N   0  0  0  0  0  0  0  0  0  0  0  0
    1.7529    4.0832   -5.1766 C   0  0  0  0  0  0  0  0  0  0  0  0
    3.1100    4.6240   -5.3399 N   0  0  0  0  0  0  0  0  0  0  0  0
    3.3792    5.6342   -6.3733 C   0  0  0  0  0  0  0  0  0  0  0  0
    4.4143    5.4135   -7.2584 C   0  0  0  0  0  0  0  0  0  0  0  0
    4.8132    6.3954   -8.1562 C   0  0  0  0  0  0  0  0  0  0  0  0
    4.1500    7.6214   -8.1556 C   0  0  0  0  0  0  0  0  0  0  0  0
    3.1126    7.8405   -7.2690 C   0  0  0  0  0  0  0  0  0  0  0  0
    2.2550    9.3432   -7.2884 Cl  0  0  0  0  0  0  0  0  0  0  0  0
    2.7434    6.8490   -6.3885 C   0  0  0  0  0  0  0  0  0  0  0  0
    1.7157    7.0653   -5.5423 F   0  0  0  0  0  0  0  0  0  0  0  0
    1.5145    3.1054   -4.1691 C   0  0  0  0  0  0  0  0  0  0  0  0
    2.5033    2.6314   -3.2773 C   0  0  0  0  0  0  0  0  0  0  0  0
    2.1800    1.6908   -2.3414 C   0  0  0  0  0  0  0  0  0  0  0  0
    3.2407    1.1934   -1.3730 C   0  0  0  0  0  0  0  0  0  0  0  0
    4.3453    0.5833   -2.1271 N   0  0  0  0  0  0  0  0  0  0  0  0
    5.3711    0.1023   -1.1905 C   0  0  0  0  0  0  0  0  0  0  0  0
    3.8342   -0.5465   -2.9166 C   0  0  0  0  0  0  0  0  0  0  0  0
    4.0727    0.0341   -4.3010 C   0  0  0  0  0  0  0  0  0  0  0  0
    4.6635    1.3724   -4.4449 N   0  0  0  0  0  0  0  0  0  0  0  0
    3.7613   -0.6375   -5.3340 O   0  0  0  0  0  0  0  0  0  0  0  0
    4.3853   -1.9302   -2.5312 C   0  0  0  0  0  0  0  0  0  0  0  0
    2.9632   -2.4707   -2.7505 N   0  0  0  0  0  0  0  0  0  0  0  0
    2.6885   -2.9417   -4.1157 C   0  0  0  0  0  0  0  0  0  0  0  0
    2.8783   -1.7949   -5.0951 C   0  0  0  0  0  0  0  0  0  0  0  0
    3.6457   -4.0697   -4.4647 C   0  0  0  0  0  0  0  0  0  0  0  0
    2.4575   -1.0509   -2.4464 C   0  0  0  0  0  0  0  0  0  0  0  0
    0.6440   -0.8494    0.3836 H   0  0  0  0  0  0  0  0  0  0  0  0
    0.6440    0.8969    0.4418 H   0  0  0  0  0  0  0  0  0  0  0  0
    2.0707    0.0406   -0.0914 H   0  0  0  0  0  0  0  0  0  0  0  0
   -1.0845    1.1978   -3.0744 H   0  0  0  0  0  0  0  0  0  0  0  0
   -1.2197    4.3306   -6.4406 H   0  0  0  0  0  0  0  0  0  0  0  0
    3.8648    4.2984   -4.7361 H   0  0  0  0  0  0  0  0  0  0  0  0
    4.9185    4.4698   -7.2531 H   0  0  0  0  0  0  0  0  0  0  0  0
    5.6175    6.2134   -8.8380 H   0  0  0  0  0  0  0  0  0  0  0  0
    4.4431    8.3904   -8.8394 H   0  0  0  0  0  0  0  0  0  0  0  0
    3.5030    3.0086   -3.3353 H   0  0  0  0  0  0  0  0  0  0  0  0
    3.6127    2.0158   -0.7983 H   0  0  0  0  0  0  0  0  0  0  0  0
    2.8115    0.4651   -0.7171 H   0  0  0  0  0  0  0  0  0  0  0  0
    4.9419   -0.6260   -0.5346 H   0  0  0  0  0  0  0  0  0  0  0  0
    6.1751   -0.3419   -1.7393 H   0  0  0  0  0  0  0  0  0  0  0  0
    5.7430    0.9246   -0.6158 H   0  0  0  0  0  0  0  0  0  0  0  0
    4.8235    1.7620   -5.3739 H   0  0  0  0  0  0  0  0  0  0  0  0
    4.9134    1.9115   -3.6158 H   0  0  0  0  0  0  0  0  0  0  0  0
    5.2354   -2.3576   -3.0207 H   0  0  0  0  0  0  0  0  0  0  0  0
    4.7429   -2.0055   -1.5255 H   0  0  0  0  0  0  0  0  0  0  0  0
    1.6812   -3.2977   -4.1742 H   0  0  0  0  0  0  0  0  0  0  0  0
    3.8856   -1.4388   -5.0365 H   0  0  0  0  0  0  0  0  0  0  0  0
    2.6783   -2.1377   -6.0888 H   0  0  0  0  0  0  0  0  0  0  0  0
    2.2045   -1.0008   -4.8494 H   0  0  0  0  0  0  0  0  0  0  0  0
    3.5121   -4.8770   -3.7753 H   0  0  0  0  0  0  0  0  0  0  0  0
    3.4457   -4.4125   -5.4584 H   0  0  0  0  0  0  0  0  0  0  0  0
    4.6530   -3.7136   -4.4062 H   0  0  0  0  0  0  0  0  0  0  0  0
    2.0523   -0.7857   -1.4923 H   0  0  0  0  0  0  0  0  0  0  0  0
    1.6332   -0.7302   -3.0487 H   0  0  0  0  0  0  0  0  0  0  0  0
  1  2  1  0  0  0  0
  1 35  1  0  0  0  0
  1 36  1  0  0  0  0
  1 37  1  0  0  0  0
  2  3  1  0  0  0  0
  3  4  1  0  0  0  0
  3 21  2  0  0  0  0
  4  5  2  0  0  0  0
  4 38  1  0  0  0  0
  5  6  1  0  0  0  0
  5 19  1  0  0  0  0
  6  7  2  0  0  0  0
  7  8  1  0  0  0  0
  7 39  1  0  0  0  0
  8  9  2  0  0  0  0
  9 10  1  0  0  0  0
  9 19  1  0  0  0  0
 10 11  1  0  0  0  0
 10 40  1  0  0  0  0
 11 12  1  0  0  0  0
 11 17  2  0  0  0  0
 12 13  2  0  0  0  0
 12 41  1  0  0  0  0
 13 14  1  0  0  0  0
 13 42  1  0  0  0  0
 14 15  2  0  0  0  0
 14 43  1  0  0  0  0
 15 16  1  0  0  0  0
 15 17  1  0  0  0  0
 17 18  1  0  0  0  0
 19 20  2  0  0  0  0
 20 21  1  0  0  0  0
 20 44  1  0  0  0  0
 21 22  1  0  0  0  0
 22 23  1  0  0  0  0
 22 45  1  0  0  0  0
 22 46  1  0  0  0  0
 23 24  1  0  0  0  0
 23 25  1  0  0  0  0
 24 47  1  0  0  0  0
 24 48  1  0  0  0  0
 24 49  1  0  0  0  0
 25 26  1  0  0  0  0
 25 29  1  0  0  0  0
 25 34  1  0  0  0  0
 26 27  1  0  0  0  0
 26 28  2  0  0  0  0
 27 50  1  0  0  0  0
 27 51  1  0  0  0  0
 29 30  1  0  0  0  0
 29 52  1  0  0  0  0
 29 53  1  0  0  0  0
 30 31  1  0  0  0  0
 30 34  1  0  0  0  0
 31 32  1  0  0  0  0
 31 33  1  0  0  0  0
 31 54  1  0  0  0  0
 32 55  1  0  0  0  0
 32 56  1  0  0  0  0
 32 57  1  0  0  0  0
 33 58  1  0  0  0  0
 33 59  1  0  0  0  0
 33 60  1  0  0  0  0
 34 61  1  0  0  0  0
 34 62  1  0  0  0  0
M  END
