
 OpenBabel03132514253D

 37 40  0  0  0  0  0  0  0  0999 V2000
    0.9316    0.0164   -0.0711 C   0  0  0  0  0  0  0  0  0  0  0  0
    0.4249   -1.2393   -0.7615 C   0  0  0  0  0  0  0  0  0  0  0  0
    0.9316   -2.4652   -0.0192 C   0  0  0  0  0  0  0  0  0  0  0  0
    1.6604   -2.5120    1.0863 N   0  0  0  0  0  0  0  0  0  0  0  0
    1.7425   -3.7791    1.4892 N   0  0  0  0  0  0  0  0  0  0  0  0
    2.3623   -4.4443    2.5678 N   0  0  0  0  0  0  0  0  0  0  0  0
    2.2385   -5.7848    2.6786 C   0  0  0  0  0  0  0  0  0  0  0  0
    1.5357   -6.5119    1.7707 C   0  0  0  0  0  0  0  0  0  0  0  0
    0.9166   -5.9286    0.7202 C   0  0  0  0  0  0  0  0  0  0  0  0
    1.0030   -4.5460    0.5457 C   0  0  0  0  0  0  0  0  0  0  0  0
    0.5304   -3.6732   -0.3588 C   0  0  0  0  0  0  0  0  0  0  0  0
   -0.3224   -4.0200   -1.5683 C   0  0  0  0  0  0  0  0  0  0  0  0
    0.1126   -3.6860   -2.8463 C   0  0  0  0  0  0  0  0  0  0  0  0
   -0.4527   -4.4151   -3.9162 C   0  0  0  0  0  0  0  0  0  0  0  0
   -1.7898   -4.7822   -3.7751 N   0  0  0  0  0  0  0  0  0  0  0  0
   -2.2894   -4.8684   -2.5604 C   0  0  0  0  0  0  0  0  0  0  0  0
   -3.6976   -5.2493   -2.3794 N   0  0  0  0  0  0  0  0  0  0  0  0
   -4.5392   -5.5314   -3.5511 C   0  0  0  0  0  0  0  0  0  0  0  0
   -4.0330   -5.1987   -4.9562 C   0  0  0  0  0  0  0  0  0  0  0  0
   -4.1592   -6.6588   -4.5141 C   0  0  0  0  0  0  0  0  0  0  0  0
   -1.4955   -4.6016   -1.4395 N   0  0  0  0  0  0  0  0  0  0  0  0
    0.5749    0.0375    0.9375 H   0  0  0  0  0  0  0  0  0  0  0  0
    0.5749    0.8794   -0.5936 H   0  0  0  0  0  0  0  0  0  0  0  0
    2.0016    0.0164   -0.0711 H   0  0  0  0  0  0  0  0  0  0  0  0
   -0.6451   -1.2393   -0.7615 H   0  0  0  0  0  0  0  0  0  0  0  0
    0.7816   -1.2604   -1.7701 H   0  0  0  0  0  0  0  0  0  0  0  0
    2.7050   -6.2861    3.5008 H   0  0  0  0  0  0  0  0  0  0  0  0
    1.4708   -7.5732    1.8905 H   0  0  0  0  0  0  0  0  0  0  0  0
    0.3626   -6.5241    0.0250 H   0  0  0  0  0  0  0  0  0  0  0  0
    0.8378   -2.9167   -3.0107 H   0  0  0  0  0  0  0  0  0  0  0  0
    0.1143   -4.6714   -4.7867 H   0  0  0  0  0  0  0  0  0  0  0  0
   -4.0907   -5.3179   -1.4407 H   0  0  0  0  0  0  0  0  0  0  0  0
   -5.4114   -5.2836   -2.9829 H   0  0  0  0  0  0  0  0  0  0  0  0
   -4.4045   -4.6221   -5.7773 H   0  0  0  0  0  0  0  0  0  0  0  0
   -3.0654   -4.7609   -5.0864 H   0  0  0  0  0  0  0  0  0  0  0  0
   -3.4956   -7.4973   -4.4735 H   0  0  0  0  0  0  0  0  0  0  0  0
   -4.9202   -7.2817   -4.9357 H   0  0  0  0  0  0  0  0  0  0  0  0
  1  2  1  0  0  0  0
  1 22  1  0  0  0  0
  1 23  1  0  0  0  0
  1 24  1  0  0  0  0
  2  3  1  0  0  0  0
  2 25  1  0  0  0  0
  2 26  1  0  0  0  0
  3  4  2  0  0  0  0
  3 11  1  0  0  0  0
  4  5  1  0  0  0  0
  5  6  1  0  0  0  0
  5 10  1  0  0  0  0
  6  7  2  0  0  0  0
  7  8  1  0  0  0  0
  7 27  1  0  0  0  0
  8  9  2  0  0  0  0
  8 28  1  0  0  0  0
  9 10  1  0  0  0  0
  9 29  1  0  0  0  0
 10 11  2  0  0  0  0
 11 12  1  0  0  0  0
 12 13  1  0  0  0  0
 12 21  2  0  0  0  0
 13 14  2  0  0  0  0
 13 30  1  0  0  0  0
 14 15  1  0  0  0  0
 14 31  1  0  0  0  0
 15 16  2  0  0  0  0
 16 17  1  0  0  0  0
 16 21  1  0  0  0  0
 17 18  1  0  0  0  0
 17 32  1  0  0  0  0
 18 19  1  0  0  0  0
 18 20  1  0  0  0  0
 18 33  1  0  0  0  0
 19 20  1  0  0  0  0
 19 34  1  0  0  0  0
 19 35  1  0  0  0  0
 20 36  1  0  0  0  0
 20 37  1  0  0  0  0
M  END
