REMARK  Name = 
REMARK  14 active torsions:
REMARK  status: ('A' for Active; 'I' for Inactive)
REMARK    1  A    between atoms: C_1  and  C_2
REMARK    2  A    between atoms: C_2  and  N_3
REMARK    3  A    between atoms: N_3  and  C_4
REMARK    4  A    between atoms: N_3  and  C_6
REMARK    5  A    between atoms: C_4  and  C_5
REMARK    6  A    between atoms: C_6  and  C_7
REMARK    7  A    between atoms: C_7  and  N_8
REMARK    8  A    between atoms: C_9  and  C_11
REMARK    9  A    between atoms: C_12  and  C_13
REMARK   10  A    between atoms: C_15  and  C_16
REMARK   11  A    between atoms: C_26  and  C_27
REMARK   12  A    between atoms: C_32  and  O_33
REMARK   13  A    between atoms: O_33  and  C_34
REMARK   14  A    between atoms: C_35  and  C_36
REMARK                            x       y       z     vdW  Elec       q    Type
REMARK                         _______ _______ _______ _____ _____    ______ ____
ROOT
ATOM      1  C   UNL     1       8.520  -1.061  -1.458  0.00  0.00    +0.000 C 
ATOM      2  C   UNL     1       9.511  -1.763  -2.034  0.00  0.00    +0.000 C 
ATOM      3  C   UNL     1       9.296  -3.169  -2.494  0.00  0.00    +0.000 C 
ATOM      4  O   UNL     1       8.284  -3.861  -2.375  0.00  0.00    +0.000 OA
ATOM      5  N   UNL     1      10.440  -3.568  -3.101  0.00  0.00    +0.000 N 
ATOM      6  C   UNL     1      11.409  -2.559  -3.074  0.00  0.00    +0.000 A 
ATOM      7  C   UNL     1      10.889  -1.445  -2.415  0.00  0.00    +0.000 A 
ATOM      8  C   UNL     1      11.740  -0.365  -2.220  0.00  0.00    +0.000 A 
ATOM      9  C   UNL     1      13.038  -0.419  -2.712  0.00  0.00    +0.000 A 
ATOM     10  C   UNL     1      13.505  -1.521  -3.414  0.00  0.00    +0.000 A 
ATOM     11  C   UNL     1      12.682  -2.628  -3.591  0.00  0.00    +0.000 A 
ATOM     12  H   UNL     1      10.578  -4.487  -3.523  0.00  0.00    +0.000 HD
ENDROOT
BRANCH   1  17
ATOM     13  C   UNL     1       4.984  -2.245  -1.197  0.00  0.00    +0.000 A 
ATOM     14  C   UNL     1       5.638  -3.166  -0.416  0.00  0.00    +0.000 A 
ATOM     15  C   UNL     1       5.132  -4.353   0.330  0.00  0.00    +0.000 C 
ATOM     16  N   UNL     1       6.960  -2.835  -0.415  0.00  0.00    +0.000 N 
ATOM     17  C   UNL     1       7.179  -1.728  -1.199  0.00  0.00    +0.000 A 
ATOM     18  C   UNL     1       5.966  -1.333  -1.707  0.00  0.00    +0.000 A 
ATOM     19  C   UNL     1       5.695  -0.144  -2.593  0.00  0.00    +0.000 C 
ATOM     20  H   UNL     1       7.686  -3.338   0.097  0.00  0.00    +0.000 HD
BRANCH  13  22
ATOM     21  N   UNL     1       2.535  -2.380  -0.368  0.00  0.00    +0.000 N 
ATOM     22  C   UNL     1       3.490  -2.200  -1.471  0.00  0.00    +0.000 C 
ATOM     23  O   UNL     1       3.066  -2.008  -2.654  0.00  0.00    +0.000 OA
ATOM     24  H   UNL     1       1.532  -2.350  -0.552  0.00  0.00    +0.000 HD
BRANCH  21  25
ATOM     25  C   UNL     1       3.025  -2.603   1.000  0.00  0.00    +0.000 C 
BRANCH  25  26
ATOM     26  C   UNL     1       2.518  -1.493   1.906  0.00  0.00    +0.000 C 
BRANCH  26  27
ATOM     27  N   UNL     1       1.048  -1.493   1.906  0.00  0.00    +0.000 NA
BRANCH  27  29
ATOM     28  C   UNL     1       1.065   0.070   0.031  0.00  0.00    +0.000 C 
ATOM     29  C   UNL     1       0.558  -1.270   0.538  0.00  0.00    +0.000 C 
ENDBRANCH  27  29
BRANCH  27  30
ATOM     30  C   UNL     1       0.558  -2.789   2.397  0.00  0.00    +0.000 C 
ATOM     31  C   UNL     1       1.065  -3.899   1.491  0.00  0.00    +0.000 C 
ENDBRANCH  27  30
ENDBRANCH  26  27
ENDBRANCH  25  26
ENDBRANCH  21  25
ENDBRANCH  13  22
ENDBRANCH   1  17
BRANCH  11  32
ATOM     32  C   UNL     1      13.169  -3.865  -4.326  0.00  0.00    +0.000 A 
ATOM     33  C   UNL     1      12.575  -4.370  -5.486  0.00  0.00    +0.000 A 
ATOM     34  C   UNL     1      13.046  -5.581  -5.976  0.00  0.00    +0.000 A 
ATOM     35  C   UNL     1      14.068  -6.221  -5.312  0.00  0.00    +0.000 A 
ATOM     36  N   UNL     1      14.625  -5.754  -4.191  0.00  0.00    +0.000 NA
ATOM     37  C   UNL     1      14.174  -4.585  -3.709  0.00  0.00    +0.000 A 
BRANCH  37  38
ATOM     38  O   UNL     1      14.751  -4.069  -2.519  0.00  0.00    +0.000 OA
ATOM     39  C   UNL     1      14.294  -2.835  -1.985  0.00  0.00    +0.000 C 
ENDBRANCH  37  38
ENDBRANCH  11  32
TORSDOF 9
