REMARK  Name = 
REMARK  7 active torsions:
REMARK  status: ('A' for Active; 'I' for Inactive)
REMARK    1  A    between atoms: C_1  and  C_2
REMARK    2  A    between atoms: C_2  and  C_3
REMARK    3  A    between atoms: C_3  and  N_4
REMARK    4  A    between atoms: C_3  and  C_28
REMARK    5  A    between atoms: C_5  and  C_7
REMARK    6  A    between atoms: N_13  and  C_14
REMARK    7  A    between atoms: C_17  and  O_18
REMARK                            x       y       z     vdW  Elec       q    Type
REMARK                         _______ _______ _______ _____ _____    ______ ____
ROOT
ATOM      1  C   UNL     1      -0.627  -4.160   2.320  0.00  0.00    +0.000 A 
ATOM      2  C   UNL     1       0.286  -4.979   1.728  0.00  0.00    +0.000 A 
ATOM      3  C   UNL     1      -0.070  -6.219   1.366  0.00  0.00    +0.000 A 
ATOM      4  C   UNL     1      -1.335  -6.694   1.580  0.00  0.00    +0.000 A 
ATOM      5  N   UNL     1      -1.623  -7.997   1.166  0.00  0.00    +0.000 NA
ATOM      6  C   UNL     1      -2.854  -8.528   1.341  0.00  0.00    +0.000 A 
ATOM      7  N   UNL     1      -3.119  -9.905   0.898  0.00  0.00    +0.000 N 
ATOM      8  C   UNL     1      -3.880  -7.785   1.938  0.00  0.00    +0.000 A 
ATOM      9  N   UNL     1      -5.146  -8.154   2.187  0.00  0.00    +0.000 NA
ATOM     10  C   UNL     1      -5.782  -7.166   2.757  0.00  0.00    +0.000 A 
ATOM     11  C   UNL     1      -4.917  -6.080   2.903  0.00  0.00    +0.000 A 
ATOM     12  N   UNL     1      -3.676  -6.445   2.385  0.00  0.00    +0.000 N 
ATOM     13  C   UNL     1      -2.335  -5.876   2.190  0.00  0.00    +0.000 A 
ATOM     14  C   UNL     1      -1.936  -4.592   2.558  0.00  0.00    +0.000 A 
ATOM     15  H   UNL     1      -2.377 -10.452   0.462  0.00  0.00    +0.000 HD
ENDROOT
BRANCH   7  16
ATOM     16  C   UNL     1      -4.454 -10.493   1.083  0.00  0.00    +0.000 C 
ATOM     17  C   UNL     1      -5.588  -9.758   0.383  0.00  0.00    +0.000 C 
ATOM     18  C   UNL     1      -6.064  -8.543   1.178  0.00  0.00    +0.000 C 
ATOM     19  C   UNL     1      -6.489  -9.012   2.570  0.00  0.00    +0.000 C 
ATOM     20  C   UNL     1      -5.353  -9.721   3.272  0.00  0.00    +0.000 C 
ATOM     21  C   UNL     1      -4.839 -10.915   2.485  0.00  0.00    +0.000 C 
BRANCH  19  22
ATOM     22  O   UNL     1      -6.877  -7.939   3.432  0.00  0.00    +0.000 OA
ATOM     23  H   UNL     1      -6.094  -7.338   3.589  0.00  0.00    +0.000 HD
ENDBRANCH  19  22
ENDBRANCH   7  16
BRANCH   1  25
ATOM     24  N   UNL     1       0.585  -1.884   2.079  0.00  0.00    +0.000 N 
ATOM     25  C   UNL     1      -0.260  -2.791   2.869  0.00  0.00    +0.000 C 
ATOM     26  O   UNL     1      -0.683  -2.430   4.012  0.00  0.00    +0.000 OA
ATOM     27  H   UNL     1       0.832  -0.966   2.447  0.00  0.00    +0.000 HD
BRANCH  24  28
ATOM     28  C   UNL     1       1.075  -2.302   0.757  0.00  0.00    +0.000 C 
BRANCH  28  29
ATOM     29  C   UNL     1       0.569  -3.701   0.448  0.00  0.00    +0.000 A 
ATOM     30  C   UNL     1       1.045  -4.803   1.211  0.00  0.00    +0.000 A 
ATOM     31  C   UNL     1       0.851  -6.109   0.732  0.00  0.00    +0.000 A 
ATOM     32  C   UNL     1       0.018  -6.327  -0.243  0.00  0.00    +0.000 A 
ATOM     33  C   UNL     1      -0.695  -5.262  -0.809  0.00  0.00    +0.000 A 
ATOM     34  C   UNL     1      -0.290  -3.931  -0.547  0.00  0.00    +0.000 A 
ENDBRANCH  28  29
BRANCH  28  36
ATOM     35  C   UNL     1       1.075   0.065   0.009  0.00  0.00    +0.000 C 
ATOM     36  C   UNL     1       0.569  -1.334  -0.300  0.00  0.00    +0.000 C 
ENDBRANCH  28  36
ENDBRANCH  24  28
ENDBRANCH   1  25
TORSDOF 6
