REMARK  Name = 
REMARK  13 active torsions:
REMARK  status: ('A' for Active; 'I' for Inactive)
REMARK    1  A    between atoms: C_1  and  C_2
REMARK    2  A    between atoms: C_2  and  N_3
REMARK    3  A    between atoms: N_3  and  C_4
REMARK    4  A    between atoms: N_3  and  C_6
REMARK    5  A    between atoms: C_4  and  C_5
REMARK    6  A    between atoms: C_6  and  C_7
REMARK    7  A    between atoms: C_7  and  N_8
REMARK    8  A    between atoms: C_9  and  C_11
REMARK    9  A    between atoms: C_12  and  C_13
REMARK   10  A    between atoms: C_15  and  C_16
REMARK   11  A    between atoms: C_26  and  C_27
REMARK   12  A    between atoms: C_30  and  C_31
REMARK   13  A    between atoms: C_38  and  C_39
REMARK                            x       y       z     vdW  Elec       q    Type
REMARK                         _______ _______ _______ _____ _____    ______ ____
ROOT
ATOM      1  C   UNL     1       8.480   1.586   0.820  0.00  0.00    +0.000 C 
ATOM      2  C   UNL     1       9.485   2.457   1.022  0.00  0.00    +0.000 C 
ATOM      3  C   UNL     1       9.298   3.920   0.783  0.00  0.00    +0.000 C 
ATOM      4  O   UNL     1       8.300   4.498   0.347  0.00  0.00    +0.000 OA
ATOM      5  N   UNL     1      10.449   4.534   1.152  0.00  0.00    +0.000 N 
ATOM      6  C   UNL     1      11.396   3.608   1.603  0.00  0.00    +0.000 A 
ATOM      7  C   UNL     1      10.854   2.325   1.522  0.00  0.00    +0.000 A 
ATOM      8  C   UNL     1      11.683   1.261   1.855  0.00  0.00    +0.000 A 
ATOM      9  C   UNL     1      12.981   1.513   2.282  0.00  0.00    +0.000 A 
ATOM     10  C   UNL     1      13.469   2.806   2.406  0.00  0.00    +0.000 A 
ATOM     11  C   UNL     1      12.668   3.884   2.045  0.00  0.00    +0.000 A 
ATOM     12  H   UNL     1      10.604   5.541   1.107  0.00  0.00    +0.000 HD
ENDROOT
BRANCH   1  17
ATOM     13  C   UNL     1       4.945   2.523   0.051  0.00  0.00    +0.000 A 
ATOM     14  C   UNL     1       5.598   2.990  -1.063  0.00  0.00    +0.000 A 
ATOM     15  C   UNL     1       5.093   3.708  -2.266  0.00  0.00    +0.000 C 
ATOM     16  N   UNL     1       6.921   2.693  -0.914  0.00  0.00    +0.000 N 
ATOM     17  C   UNL     1       7.139   2.063   0.287  0.00  0.00    +0.000 A 
ATOM     18  C   UNL     1       5.926   1.942   0.919  0.00  0.00    +0.000 A 
ATOM     19  C   UNL     1       5.655   1.285   2.249  0.00  0.00    +0.000 C 
ATOM     20  H   UNL     1       7.646   2.909  -1.598  0.00  0.00    +0.000 HD
BRANCH  13  22
ATOM     21  N   UNL     1       2.495   2.267  -0.749  0.00  0.00    +0.000 N 
ATOM     22  C   UNL     1       3.450   2.608   0.315  0.00  0.00    +0.000 C 
ATOM     23  O   UNL     1       3.027   2.974   1.456  0.00  0.00    +0.000 OA
ATOM     24  H   UNL     1       1.492   2.324  -0.572  0.00  0.00    +0.000 HD
BRANCH  21  25
ATOM     25  C   UNL     1       2.985   1.844  -2.069  0.00  0.00    +0.000 C 
BRANCH  25  26
ATOM     26  C   UNL     1       2.478   0.444  -2.372  0.00  0.00    +0.000 C 
BRANCH  26  27
ATOM     27  N   UNL     1       1.008   0.444  -2.372  0.00  0.00    +0.000 NA
BRANCH  27  29
ATOM     28  C   UNL     1       1.025  -0.096   0.009  0.00  0.00    +0.000 C 
ATOM     29  C   UNL     1       0.518   0.867  -1.053  0.00  0.00    +0.000 C 
ENDBRANCH  27  29
BRANCH  27  30
ATOM     30  C   UNL     1       0.518   1.375  -3.399  0.00  0.00    +0.000 C 
ATOM     31  C   UNL     1       1.025   2.776  -3.095  0.00  0.00    +0.000 C 
ENDBRANCH  27  30
ENDBRANCH  26  27
ENDBRANCH  25  26
ENDBRANCH  21  25
ENDBRANCH  13  22
ENDBRANCH   1  17
BRANCH  11  32
ATOM     32  C   UNL     1      13.180   5.312   2.136  0.00  0.00    +0.000 A 
ATOM     33  C   UNL     1      14.273   5.769   1.447  0.00  0.00    +0.000 A 
ATOM     34  S   UNL     1      14.544   7.459   1.784  0.00  0.00    +0.000 S 
ATOM     35  C   UNL     1      13.170   7.434   2.834  0.00  0.00    +0.000 A 
ATOM     36  N   UNL     1      12.581   6.277   2.929  0.00  0.00    +0.000 NA
BRANCH  35  37
ATOM     37  C   UNL     1      12.689   8.665   3.586  0.00  0.00    +0.000 A 
ATOM     38  C   UNL     1      12.459   9.816   2.852  0.00  0.00    +0.000 A 
ATOM     39  C   UNL     1      12.465  11.001   3.626  0.00  0.00    +0.000 A 
ATOM     40  C   UNL     1      12.334  11.037   4.940  0.00  0.00    +0.000 A 
ATOM     41  C   UNL     1      12.506   9.854   5.601  0.00  0.00    +0.000 A 
ATOM     42  C   UNL     1      12.637   8.672   4.913  0.00  0.00    +0.000 A 
ENDBRANCH  35  37
ENDBRANCH  11  32
TORSDOF 9
