REMARK  Name = 
REMARK  6 active torsions:
REMARK  status: ('A' for Active; 'I' for Inactive)
REMARK    1  A    between atoms: C_2  and  O_3
REMARK    2  A    between atoms: C_2  and  C_4
REMARK    3  A    between atoms: C_11  and  C_12
REMARK    4  A    between atoms: C_15  and  O_16
REMARK    5  A    between atoms: O_16  and  C_17
REMARK    6  A    between atoms: C_17  and  C_18
REMARK                            x       y       z     vdW  Elec       q    Type
REMARK                         _______ _______ _______ _____ _____    ______ ____
ROOT
ATOM      1  C   UNL     1       3.066   1.118  -0.531  0.00  0.00    +0.000 A 
ATOM      2  C   UNL     1       4.204   0.961  -1.287  0.00  0.00    +0.000 A 
ATOM      3  N   UNL     1       4.696   2.181  -1.670  0.00  0.00    +0.000 N 
ATOM      4  C   UNL     1       3.907   3.166  -1.123  0.00  0.00    +0.000 A 
ATOM      5  C   UNL     1       4.064   4.555  -1.175  0.00  0.00    +0.000 A 
ATOM      6  C   UNL     1       3.142   5.296  -0.463  0.00  0.00    +0.000 A 
ATOM      7 CL   UNL     1       3.288   7.035  -0.453  0.00  0.00    +0.000 Cl
ATOM      8  C   UNL     1       2.100   4.717   0.282  0.00  0.00    +0.000 A 
ATOM      9  C   UNL     1       1.954   3.339   0.317  0.00  0.00    +0.000 A 
ATOM     10  C   UNL     1       2.861   2.537  -0.400  0.00  0.00    +0.000 A 
ATOM     11  H   UNL     1       5.513   2.333  -2.262  0.00  0.00    +0.000 HD
ENDROOT
BRANCH   8  12
ATOM     12  C   UNL     1       1.132   5.602   1.050  0.00  0.00    +0.000 A 
ATOM     13  C   UNL     1       1.006   5.370   2.409  0.00  0.00    +0.000 A 
ATOM     14  C   UNL     1      -0.152   5.945   2.984  0.00  0.00    +0.000 A 
ATOM     15  C   UNL     1      -0.868   6.904   2.426  0.00  0.00    +0.000 A 
ATOM     16  C   UNL     1      -0.649   7.131   1.096  0.00  0.00    +0.000 A 
ATOM     17  C   UNL     1       0.381   6.508   0.433  0.00  0.00    +0.000 A 
BRANCH  15  18
ATOM     18  O   UNL     1      -1.816   7.659   3.167  0.00  0.00    +0.000 OA
BRANCH  18  19
ATOM     19  C   UNL     1      -2.565   8.681   2.528  0.00  0.00    +0.000 C 
BRANCH  19  20
ATOM     20  C   UNL     1      -1.618   9.730   1.968  0.00  0.00    +0.000 C 
ATOM     21  C   UNL     1      -0.256   9.588   2.590  0.00  0.00    +0.000 C 
ATOM     22  C   UNL     1       0.417  10.958   2.275  0.00  0.00    +0.000 C 
ATOM     23  C   UNL     1      -0.751  11.947   2.339  0.00  0.00    +0.000 C 
ATOM     24  N   UNL     1      -1.999  11.094   2.377  0.00  0.00    +0.000 NA
ATOM     25  H   UNL     1      -2.382  11.080   3.322  0.00  0.00    +0.000 HD
ENDBRANCH  19  20
ENDBRANCH  18  19
ENDBRANCH  15  18
ENDBRANCH   8  12
BRANCH   1  27
ATOM     26  O   UNL     1       1.035  -0.048   0.080  0.00  0.00    +0.000 OA
ATOM     27  C   UNL     1       2.306  -0.048   0.080  0.00  0.00    +0.000 C 
BRANCH  27  28
ATOM     28  O   UNL     1       3.016  -1.137   0.652  0.00  0.00    +0.000 OA
ATOM     29  H   UNL     1       4.016  -1.137   0.652  0.00  0.00    +0.000 HD
ENDBRANCH  27  28
ENDBRANCH   1  27
TORSDOF 6
