REMARK  Name = 
REMARK  6 active torsions:
REMARK  status: ('A' for Active; 'I' for Inactive)
REMARK    1  A    between atoms: C_1  and  O_2
REMARK    2  A    between atoms: O_2  and  C_3
REMARK    3  A    between atoms: N_10  and  C_11
REMARK    4  A    between atoms: C_21  and  C_22
REMARK    5  A    between atoms: C_22  and  N_23
REMARK    6  A    between atoms: C_28  and  C_29
REMARK                            x       y       z     vdW  Elec       q    Type
REMARK                         _______ _______ _______ _____ _____    ______ ____
ROOT
ATOM      1  C   UNL     1       0.848   0.445  -2.417  0.00  0.00    +0.000 A 
ATOM      2  C   UNL     1      -0.108   0.578  -3.385  0.00  0.00    +0.000 A 
ATOM      3  C   UNL     1       0.207   1.195  -4.615  0.00  0.00    +0.000 A 
ATOM      4  N   UNL     1      -0.766   1.352  -5.569  0.00  0.00    +0.000 NA
ATOM      5  C   UNL     1      -0.403   1.928  -6.682  0.00  0.00    +0.000 A 
ATOM      6  N   UNL     1       0.849   2.378  -7.005  0.00  0.00    +0.000 NA
ATOM      7  C   UNL     1       1.792   2.222  -6.108  0.00  0.00    +0.000 A 
ATOM      8  N   UNL     1       3.157   2.668  -6.422  0.00  0.00    +0.000 N 
ATOM      9  C   UNL     1       1.533   1.633  -4.838  0.00  0.00    +0.000 A 
ATOM     10  C   UNL     1       2.507   1.471  -3.827  0.00  0.00    +0.000 A 
ATOM     11  C   UNL     1       2.164   0.894  -2.638  0.00  0.00    +0.000 A 
ATOM     12  H   UNL     1       3.902   2.554  -5.735  0.00  0.00    +0.000 HD
ENDROOT
BRANCH   8  13
ATOM     13  C   UNL     1       3.448   3.279  -7.727  0.00  0.00    +0.000 A 
ATOM     14  C   UNL     1       4.476   2.770  -8.494  0.00  0.00    +0.000 A 
ATOM     15  C   UNL     1       4.876   3.398  -9.667  0.00  0.00    +0.000 A 
ATOM     16  C   UNL     1       4.221   4.561 -10.068  0.00  0.00    +0.000 A 
ATOM     17  C   UNL     1       3.191   5.069  -9.299  0.00  0.00    +0.000 A 
ATOM     18 CL   UNL     1       2.344   6.489  -9.809  0.00  0.00    +0.000 Cl
ATOM     19  C   UNL     1       2.821   4.427  -8.139  0.00  0.00    +0.000 A 
ATOM     20  F   UNL     1       1.800   4.918  -7.408  0.00  0.00    +0.000 F 
ENDBRANCH   8  13
BRANCH   1  22
ATOM     21  C   UNL     1       0.978   0.096   0.015  0.00  0.00    +0.000 C 
ATOM     22  O   UNL     1       0.504  -0.307  -1.262  0.00  0.00    +0.000 OA
ENDBRANCH   1  22
BRANCH  11  23
ATOM     23  C   UNL     1       3.209   0.735  -1.546  0.00  0.00    +0.000 C 
BRANCH  23  24
ATOM     24  N   UNL     1       4.314  -0.098  -2.042  0.00  0.00    +0.000 NA
ATOM     25  C   UNL     1       3.788  -1.415  -2.425  0.00  0.00    +0.000 C 
ATOM     26  C   UNL     1       4.909  -2.318  -2.892  0.00  0.00    +0.000 C 
ATOM     27  C   UNL     1       5.656  -1.695  -4.069  0.00  0.00    +0.000 C 
ATOM     28  C   UNL     1       6.098  -0.274  -3.722  0.00  0.00    +0.000 C 
ATOM     29  C   UNL     1       4.922   0.540  -3.208  0.00  0.00    +0.000 C 
BRANCH  29  30
ATOM     30  C   UNL     1       5.425   1.915  -2.801  0.00  0.00    +0.000 C 
ATOM     31  N   UNL     1       4.896   3.117  -3.461  0.00  0.00    +0.000 N 
ATOM     32  O   UNL     1       6.304   2.026  -1.890  0.00  0.00    +0.000 OA
ATOM     33  H   UNL     1       5.233   4.040  -3.188  0.00  0.00    +0.000 HD
ATOM     34  H   UNL     1       4.190   3.028  -4.192  0.00  0.00    +0.000 HD
ENDBRANCH  29  30
ENDBRANCH  23  24
ENDBRANCH  11  23
TORSDOF 5
