REMARK  Name = 
REMARK  17 active torsions:
REMARK  status: ('A' for Active; 'I' for Inactive)
REMARK    1  A    between atoms: C_2  and  C_3
REMARK    2  A    between atoms: C_2  and  O_13
REMARK    3  A    between atoms: C_4  and  C_5
REMARK    4  A    between atoms: C_8  and  O_9
REMARK    5  A    between atoms: C_10  and  O_11
REMARK    6  A    between atoms: O_13  and  C_14
REMARK    7  A    between atoms: C_14  and  C_15
REMARK    8  A    between atoms: C_14  and  C_18
REMARK    9  A    between atoms: C_15  and  O_17
REMARK   10  A    between atoms: C_18  and  O_19
REMARK   11  A    between atoms: C_18  and  C_32
REMARK   12  A    between atoms: O_19  and  C_20
REMARK   13  A    between atoms: C_20  and  C_22
REMARK   14  A    between atoms: C_23  and  C_24
REMARK   15  A    between atoms: C_27  and  O_28
REMARK   16  A    between atoms: C_29  and  O_30
REMARK   17  A    between atoms: C_32  and  O_34
REMARK                            x       y       z     vdW  Elec       q    Type
REMARK                         _______ _______ _______ _____ _____    ______ ____
ROOT
ATOM      1  C   UNL     1       4.333   1.050  -0.737  0.00  0.00    +0.000 C 
ENDROOT
BRANCH   1   2
ATOM      2  C   UNL     1       4.840   1.119   0.695  0.00  0.00    +0.000 C 
ATOM      3  O   UNL     1       5.571   0.186   1.155  0.00  0.00    +0.000 OA
BRANCH   2   4
ATOM      4  O   UNL     1       4.497   2.224   1.517  0.00  0.00    +0.000 OA
ATOM      5  H   UNL     1       4.830   2.269   2.459  0.00  0.00    +0.000 HD
ENDBRANCH   2   4
ENDBRANCH   1   2
BRANCH   1   6
ATOM      6  C   UNL     1       4.840  -0.224  -1.393  0.00  0.00    +0.000 C 
BRANCH   6   7
ATOM      7  C   UNL     1       6.360  -0.224  -1.393  0.00  0.00    +0.000 C 
ATOM      8  O   UNL     1       6.995  -1.149  -0.798  0.00  0.00    +0.000 OA
BRANCH   7   9
ATOM      9  O   UNL     1       7.070   0.811  -2.058  0.00  0.00    +0.000 OA
ATOM     10  H   UNL     1       8.070   0.811  -2.058  0.00  0.00    +0.000 HD
ENDBRANCH   7   9
ENDBRANCH   6   7
BRANCH   6  11
ATOM     11  O   UNL     1       4.367  -0.287  -2.731  0.00  0.00    +0.000 OA
BRANCH  11  12
ATOM     12  C   UNL     1       2.970  -0.299  -2.990  0.00  0.00    +0.000 C 
ATOM     13  O   UNL     1       2.145  -0.254  -2.025  0.00  0.00    +0.000 OA
BRANCH  12  14
ATOM     14  C   UNL     1       2.464  -0.368  -4.421  0.00  0.00    +0.000 C 
ATOM     15  C   UNL     1       3.348  -0.417  -5.454  0.00  0.00    +0.000 C 
BRANCH  15  16
ATOM     16  C   UNL     1       2.841  -0.485  -6.886  0.00  0.00    +0.000 A 
ATOM     17  C   UNL     1       1.800   0.354  -7.296  0.00  0.00    +0.000 A 
ATOM     18  C   UNL     1       1.356   0.256  -8.626  0.00  0.00    +0.000 A 
ATOM     19  C   UNL     1       1.941  -0.628  -9.517  0.00  0.00    +0.000 A 
ATOM     20  C   UNL     1       2.984  -1.454  -9.089  0.00  0.00    +0.000 A 
ATOM     21  C   UNL     1       3.414  -1.374  -7.777  0.00  0.00    +0.000 A 
BRANCH  20  22
ATOM     22  O   UNL     1       3.616  -2.309  -9.936  0.00  0.00    +0.000 OA
ATOM     23  H   UNL     1       3.320  -2.381 -10.888  0.00  0.00    +0.000 HD
ENDBRANCH  20  22
BRANCH  19  24
ATOM     24  O   UNL     1       1.524  -0.753 -10.813  0.00  0.00    +0.000 OA
ATOM     25  H   UNL     1       0.781  -0.179 -11.156  0.00  0.00    +0.000 HD
ENDBRANCH  19  24
ENDBRANCH  15  16
ENDBRANCH  12  14
ENDBRANCH  11  12
ENDBRANCH   6  11
ENDBRANCH   1   6
BRANCH   1  26
ATOM     26  O   UNL     1       2.913   1.050  -0.737  0.00  0.00    +0.000 OA
BRANCH  26  28
ATOM     27  O   UNL     1       0.932   0.016  -0.072  0.00  0.00    +0.000 OA
ATOM     28  C   UNL     1       2.203   0.016  -0.072  0.00  0.00    +0.000 C 
BRANCH  28  29
ATOM     29  C   UNL     1       2.963  -1.092   0.640  0.00  0.00    +0.000 C 
ATOM     30  C   UNL     1       4.324  -1.092   0.640  0.00  0.00    +0.000 C 
BRANCH  30  31
ATOM     31  C   UNL     1       5.084  -2.199   1.351  0.00  0.00    +0.000 A 
ATOM     32  C   UNL     1       4.623  -3.502   1.133  0.00  0.00    +0.000 A 
ATOM     33  C   UNL     1       5.222  -4.546   1.857  0.00  0.00    +0.000 A 
ATOM     34  C   UNL     1       6.255  -4.305   2.747  0.00  0.00    +0.000 A 
ATOM     35  C   UNL     1       6.705  -2.998   2.947  0.00  0.00    +0.000 A 
ATOM     36  C   UNL     1       6.108  -1.962   2.250  0.00  0.00    +0.000 A 
BRANCH  35  37
ATOM     37  O   UNL     1       7.742  -2.714   3.780  0.00  0.00    +0.000 OA
ATOM     38  H   UNL     1       8.187  -3.448   4.293  0.00  0.00    +0.000 HD
ENDBRANCH  35  37
BRANCH  34  39
ATOM     39  O   UNL     1       6.851  -5.298   3.472  0.00  0.00    +0.000 OA
ATOM     40  H   UNL     1       6.556  -6.247   3.357  0.00  0.00    +0.000 HD
ENDBRANCH  34  39
ENDBRANCH  30  31
ENDBRANCH  28  29
ENDBRANCH  26  28
ENDBRANCH   1  26
TORSDOF 17
