REMARK  Name = 
REMARK  17 active torsions:
REMARK  status: ('A' for Active; 'I' for Inactive)
REMARK    1  A    between atoms: C_2  and  C_3
REMARK    2  A    between atoms: C_2  and  O_13
REMARK    3  A    between atoms: C_4  and  C_5
REMARK    4  A    between atoms: C_8  and  O_9
REMARK    5  A    between atoms: C_10  and  O_11
REMARK    6  A    between atoms: O_13  and  C_14
REMARK    7  A    between atoms: C_14  and  C_15
REMARK    8  A    between atoms: C_14  and  C_18
REMARK    9  A    between atoms: C_15  and  O_17
REMARK   10  A    between atoms: C_18  and  O_19
REMARK   11  A    between atoms: C_18  and  C_32
REMARK   12  A    between atoms: O_19  and  C_20
REMARK   13  A    between atoms: C_20  and  C_22
REMARK   14  A    between atoms: C_23  and  C_24
REMARK   15  A    between atoms: C_27  and  O_28
REMARK   16  A    between atoms: C_29  and  O_30
REMARK   17  A    between atoms: C_32  and  O_34
REMARK                            x       y       z     vdW  Elec       q    Type
REMARK                         _______ _______ _______ _____ _____    ______ ____
ROOT
ATOM      1  C   UNL     1       4.467   0.572   1.005  0.00  0.00    +0.000 C 
ENDROOT
BRANCH   1   2
ATOM      2  C   UNL     1       4.974  -0.861   1.012  0.00  0.00    +0.000 C 
ATOM      3  O   UNL     1       5.705  -1.282   0.061  0.00  0.00    +0.000 OA
BRANCH   2   4
ATOM      4  O   UNL     1       4.631  -1.730   2.082  0.00  0.00    +0.000 OA
ATOM      5  H   UNL     1       4.964  -2.673   2.087  0.00  0.00    +0.000 HD
ENDBRANCH   2   4
ENDBRANCH   1   2
BRANCH   1   6
ATOM      6  C   UNL     1       4.974   1.282  -0.240  0.00  0.00    +0.000 C 
BRANCH   6   7
ATOM      7  C   UNL     1       6.494   1.282  -0.240  0.00  0.00    +0.000 C 
ATOM      8  O   UNL     1       7.129   0.727  -1.190  0.00  0.00    +0.000 OA
BRANCH   7   9
ATOM      9  O   UNL     1       7.204   1.902   0.822  0.00  0.00    +0.000 OA
ATOM     10  H   UNL     1       8.204   1.902   0.822  0.00  0.00    +0.000 HD
ENDBRANCH   7   9
ENDBRANCH   6   7
BRANCH   6  11
ATOM     11  O   UNL     1       4.501   2.621  -0.247  0.00  0.00    +0.000 OA
BRANCH  11  12
ATOM     12  C   UNL     1       3.104   2.880  -0.248  0.00  0.00    +0.000 C 
ATOM     13  O   UNL     1       2.279   1.914  -0.243  0.00  0.00    +0.000 OA
BRANCH  12  14
ATOM     14  C   UNL     1       2.598   4.313  -0.256  0.00  0.00    +0.000 C 
ATOM     15  C   UNL     1       3.482   5.347  -0.261  0.00  0.00    +0.000 C 
BRANCH  15  16
ATOM     16  C   UNL     1       2.975   6.780  -0.268  0.00  0.00    +0.000 A 
ATOM     17  C   UNL     1       1.934   7.155   0.588  0.00  0.00    +0.000 A 
ATOM     18  C   UNL     1       1.488   8.487   0.544  0.00  0.00    +0.000 A 
ATOM     19  C   UNL     1       2.070   9.414  -0.304  0.00  0.00    +0.000 A 
ATOM     20  C   UNL     1       3.113   9.022  -1.147  0.00  0.00    +0.000 A 
ATOM     21  C   UNL     1       3.546   7.708  -1.121  0.00  0.00    +0.000 A 
BRANCH  20  22
ATOM     22  O   UNL     1       3.744   9.903  -1.968  0.00  0.00    +0.000 OA
ATOM     23  H   UNL     1       3.445  10.857  -2.001  0.00  0.00    +0.000 HD
ENDBRANCH  20  22
BRANCH  19  24
ATOM     24  O   UNL     1       1.651  10.713  -0.376  0.00  0.00    +0.000 OA
ATOM     25  H   UNL     1       0.908  11.032   0.212  0.00  0.00    +0.000 HD
ENDBRANCH  19  24
ENDBRANCH  15  16
ENDBRANCH  12  14
ENDBRANCH  11  12
ENDBRANCH   6  11
ENDBRANCH   1   6
BRANCH   1  26
ATOM     26  O   UNL     1       3.047   0.572   1.005  0.00  0.00    +0.000 OA
BRANCH  26  28
ATOM     27  O   UNL     1       1.066  -0.049  -0.057  0.00  0.00    +0.000 OA
ATOM     28  C   UNL     1       2.337  -0.049  -0.057  0.00  0.00    +0.000 C 
BRANCH  28  29
ATOM     29  C   UNL     1       3.097  -0.713  -1.194  0.00  0.00    +0.000 C 
ATOM     30  C   UNL     1       4.458  -0.713  -1.194  0.00  0.00    +0.000 C 
BRANCH  30  31
ATOM     31  C   UNL     1       5.218  -1.377  -2.330  0.00  0.00    +0.000 A 
ATOM     32  C   UNL     1       4.781  -1.123  -3.635  0.00  0.00    +0.000 A 
ATOM     33  C   UNL     1       5.537  -1.644  -4.699  0.00  0.00    +0.000 A 
ATOM     34  C   UNL     1       6.693  -2.372  -4.472  0.00  0.00    +0.000 A 
ATOM     35  C   UNL     1       7.116  -2.609  -3.162  0.00  0.00    +0.000 A 
ATOM     36  C   UNL     1       6.367  -2.113  -2.109  0.00  0.00    +0.000 A 
BRANCH  35  37
ATOM     37  O   UNL     1       8.265  -3.283  -2.888  0.00  0.00    +0.000 OA
ATOM     38  H   UNL     1       8.820  -3.649  -3.635  0.00  0.00    +0.000 HD
ENDBRANCH  35  37
BRANCH  34  39
ATOM     39  O   UNL     1       7.443  -2.899  -5.486  0.00  0.00    +0.000 OA
ATOM     40  H   UNL     1       7.173  -2.751  -6.437  0.00  0.00    +0.000 HD
ENDBRANCH  34  39
ENDBRANCH  30  31
ENDBRANCH  28  29
ENDBRANCH  26  28
ENDBRANCH   1  26
TORSDOF 17
