REMARK  Name = 
REMARK  15 active torsions:
REMARK  status: ('A' for Active; 'I' for Inactive)
REMARK    1  A    between atoms: C_1  and  C_2
REMARK    2  A    between atoms: C_8  and  C_9
REMARK    3  A    between atoms: C_9  and  C_10
REMARK    4  A    between atoms: C_9  and  C_11
REMARK    5  A    between atoms: C_9  and  O_12
REMARK    6  A    between atoms: C_14  and  C_15
REMARK    7  A    between atoms: C_23  and  O_24
REMARK    8  A    between atoms: O_24  and  C_25
REMARK    9  A    between atoms: C_28  and  O_29
REMARK   10  A    between atoms: C_30  and  O_31
REMARK   11  A    between atoms: C_32  and  O_33
REMARK   12  A    between atoms: C_34  and  C_35
REMARK   13  A    between atoms: C_34  and  C_36
REMARK   14  A    between atoms: C_41  and  C_42
REMARK   15  A    between atoms: C_43  and  O_44
REMARK                            x       y       z     vdW  Elec       q    Type
REMARK                         _______ _______ _______ _____ _____    ______ ____
ROOT
ATOM      1  C   UNL     1       1.091  -0.036  -0.019  0.00  0.00    +0.000 C 
ATOM      2  C   UNL     1       0.585   1.170   0.756  0.00  0.00    +0.000 C 
ATOM      3  C   UNL     1      -0.372   1.932  -0.076  0.00  0.00    +0.000 C 
ATOM      4  C   UNL     1       0.319   3.198  -0.585  0.00  0.00    +0.000 C 
ATOM      5  O   UNL     1      -1.442   7.757  -0.177  0.00  0.00    +0.000 OA
ATOM      6  C   UNL     1      -0.521   6.720   0.127  0.00  0.00    +0.000 C 
ATOM      7  O   UNL     1       0.079   5.579  -0.700  0.00  0.00    +0.000 OA
ATOM      8  C   UNL     1      -0.487   4.337  -0.277  0.00  0.00    +0.000 C 
ATOM      9  C   UNL     1       0.091   0.711   2.072  0.00  0.00    +0.000 C 
ATOM     10  C   UNL     1       1.133   1.062   3.136  0.00  0.00    +0.000 C 
ATOM     11  C   UNL     1       2.212  -0.005   3.233  0.00  0.00    +0.000 C 
ATOM     12  C   UNL     1       0.509   1.808   4.184  0.00  0.00    +0.000 C 
ATOM     13  C   UNL     1       1.378   2.114   5.276  0.00  0.00    +0.000 C 
ATOM     14  C   UNL     1       0.825   3.313   6.049  0.00  0.00    +0.000 C 
ATOM     15  C   UNL     1       0.757   4.588   4.027  0.00  0.00    +0.000 C 
ATOM     16  C   UNL     1       1.293   4.522   5.448  0.00  0.00    +0.000 C 
ATOM     17  C   UNL     1       2.811   4.481   5.499  0.00  0.00    +0.000 C 
ATOM     18  C   UNL     1       3.310   3.252   4.754  0.00  0.00    +0.000 C 
ATOM     19  C   UNL     1       2.853   3.318   3.306  0.00  0.00    +0.000 C 
ATOM     20  C   UNL     1       1.556   5.753   7.502  0.00  0.00    +0.000 C 
ATOM     21  C   UNL     1       1.125   7.013   8.234  0.00  0.00    +0.000 C 
ATOM     22  C   UNL     1       1.144   4.532   8.308  0.00  0.00    +0.000 C 
ATOM     23  C   UNL     1       0.888   5.707   6.137  0.00  0.00    +0.000 C 
ATOM     24  C   UNL     1       1.302   6.936   5.325  0.00  0.00    +0.000 C 
ATOM     25  C   UNL     1       0.498   7.021   4.146  0.00  0.00    +0.000 C 
ATOM     26  C   UNL     1       0.890   8.062   3.249  0.00  0.00    +0.000 C 
ATOM     27  C   UNL     1      -0.054   8.079   2.045  0.00  0.00    +0.000 C 
ATOM     28  C   UNL     1      -0.943   9.300   1.874  0.00  0.00    +0.000 C 
ATOM     29  C   UNL     1       0.471   7.234   1.019  0.00  0.00    +0.000 C 
ENDROOT
BRANCH   8  30
ATOM     30  C   UNL     1      -0.601   4.399   1.237  0.00  0.00    +0.000 C 
ATOM     31  C   UNL     1      -1.475   5.578   1.632  0.00  0.00    +0.000 C 
ATOM     32  C   UNL     1      -1.226   3.111   1.751  0.00  0.00    +0.000 C 
BRANCH  30  33
ATOM     33  O   UNL     1       0.691   4.556   1.804  0.00  0.00    +0.000 OA
ATOM     34  H   UNL     1       0.616   4.597   2.800  0.00  0.00    +0.000 HD
ENDBRANCH  30  33
ENDBRANCH   8  30
BRANCH  29  35
ATOM     35  O   UNL     1       1.351   8.030   0.240  0.00  0.00    +0.000 OA
ATOM     36  H   UNL     1       0.842   8.785  -0.172  0.00  0.00    +0.000 HD
ENDBRANCH  29  35
BRANCH  19  37
ATOM     37  O   UNL     1       3.319   2.171   2.611  0.00  0.00    +0.000 OA
BRANCH  37  38
ATOM     38  C   UNL     1       4.737   2.132   2.658  0.00  0.00    +0.000 C 
ATOM     39  O   UNL     1       5.261   1.254   1.519  0.00  0.00    +0.000 OA
ATOM     40  C   UNL     1       4.875   1.821   0.265  0.00  0.00    +0.000 C 
ATOM     41  C   UNL     1       5.396   3.130   0.033  0.00  0.00    +0.000 C 
ATOM     42  C   UNL     1       4.878   4.084   1.111  0.00  0.00    +0.000 C 
ATOM     43  C   UNL     1       5.285   3.553   2.489  0.00  0.00    +0.000 C 
BRANCH  41  44
ATOM     44  O   UNL     1       4.977   3.587  -1.245  0.00  0.00    +0.000 OA
ATOM     45  H   UNL     1       3.978   3.615  -1.277  0.00  0.00    +0.000 HD
ENDBRANCH  41  44
BRANCH  42  46
ATOM     46  O   UNL     1       3.463   4.172   1.032  0.00  0.00    +0.000 OA
ATOM     47  H   UNL     1       3.065   3.266   1.170  0.00  0.00    +0.000 HD
ENDBRANCH  42  46
BRANCH  43  48
ATOM     48  O   UNL     1       4.755   4.394   3.503  0.00  0.00    +0.000 OA
ATOM     49  H   UNL     1       3.758   4.412   3.434  0.00  0.00    +0.000 HD
ENDBRANCH  43  48
ENDBRANCH  37  38
ENDBRANCH  19  37
TORSDOF 8
