
 OpenBabel03132512093D

100107  0  0  0  0  0  0  0  0999 V2000
    1.0914   -0.0359   -0.0188 C   0  0  0  0  0  0  0  0  0  0  0  0
    0.5847    1.1697    0.7560 C   0  0  0  0  0  0  0  0  0  0  0  0
   -0.3720    1.9316   -0.0762 C   0  0  0  0  0  0  0  0  0  0  0  0
    0.3190    3.1979   -0.5851 C   0  0  0  0  0  0  0  0  0  0  0  0
   -1.4419    7.7571   -0.1772 O   0  0  0  0  0  0  0  0  0  0  0  0
   -0.5213    6.7197    0.1269 C   0  0  0  0  0  0  0  0  0  0  0  0
    0.0785    5.5794   -0.6996 O   0  0  0  0  0  0  0  0  0  0  0  0
   -0.4866    4.3372   -0.2771 C   0  0  0  0  0  0  0  0  0  0  0  0
   -0.6012    4.3985    1.2373 C   0  0  0  0  0  0  0  0  0  0  0  0
   -1.4748    5.5782    1.6319 C   0  0  0  0  0  0  0  0  0  0  0  0
   -1.2259    3.1114    1.7507 C   0  0  0  0  0  0  0  0  0  0  0  0
    0.6913    4.5562    1.8038 O   0  0  0  0  0  0  0  0  0  0  0  0
    0.0915    0.7106    2.0720 C   0  0  0  0  0  0  0  0  0  0  0  0
    1.1332    1.0616    3.1364 C   0  0  0  0  0  0  0  0  0  0  0  0
    2.2119   -0.0049    3.2327 C   0  0  0  0  0  0  0  0  0  0  0  0
    0.5095    1.8083    4.1843 C   0  0  0  0  0  0  0  0  0  0  0  0
    1.3782    2.1136    5.2763 C   0  0  0  0  0  0  0  0  0  0  0  0
    0.8253    3.3129    6.0486 C   0  0  0  0  0  0  0  0  0  0  0  0
    0.7570    4.5884    4.0269 C   0  0  0  0  0  0  0  0  0  0  0  0
    1.2929    4.5222    5.4478 C   0  0  0  0  0  0  0  0  0  0  0  0
    2.8114    4.4806    5.4986 C   0  0  0  0  0  0  0  0  0  0  0  0
    3.3098    3.2525    4.7543 C   0  0  0  0  0  0  0  0  0  0  0  0
    2.8530    3.3178    3.3060 C   0  0  0  0  0  0  0  0  0  0  0  0
    3.3186    2.1706    2.6107 O   0  0  0  0  0  0  0  0  0  0  0  0
    4.7373    2.1317    2.6582 C   0  0  0  0  0  0  0  0  0  0  0  0
    5.2607    1.2536    1.5192 O   0  0  0  0  0  0  0  0  0  0  0  0
    4.8748    1.8206    0.2654 C   0  0  0  0  0  0  0  0  0  0  0  0
    5.3963    3.1302    0.0325 C   0  0  0  0  0  0  0  0  0  0  0  0
    4.9766    3.5870   -1.2449 O   0  0  0  0  0  0  0  0  0  0  0  0
    4.8783    4.0842    1.1114 C   0  0  0  0  0  0  0  0  0  0  0  0
    3.4633    4.1724    1.0318 O   0  0  0  0  0  0  0  0  0  0  0  0
    5.2849    3.5527    2.4894 C   0  0  0  0  0  0  0  0  0  0  0  0
    4.7552    4.3942    3.5031 O   0  0  0  0  0  0  0  0  0  0  0  0
    1.5555    5.7531    7.5016 C   0  0  0  0  0  0  0  0  0  0  0  0
    1.1248    7.0132    8.2344 C   0  0  0  0  0  0  0  0  0  0  0  0
    1.1440    4.5322    8.3082 C   0  0  0  0  0  0  0  0  0  0  0  0
    0.8878    5.7073    6.1369 C   0  0  0  0  0  0  0  0  0  0  0  0
    1.3020    6.9364    5.3248 C   0  0  0  0  0  0  0  0  0  0  0  0
    0.4978    7.0208    4.1462 C   0  0  0  0  0  0  0  0  0  0  0  0
    0.8900    8.0623    3.2492 C   0  0  0  0  0  0  0  0  0  0  0  0
   -0.0536    8.0791    2.0447 C   0  0  0  0  0  0  0  0  0  0  0  0
   -0.9426    9.3001    1.8737 C   0  0  0  0  0  0  0  0  0  0  0  0
    0.4706    7.2335    1.0186 C   0  0  0  0  0  0  0  0  0  0  0  0
    1.3515    8.0295    0.2396 O   0  0  0  0  0  0  0  0  0  0  0  0
    0.7347    0.0120   -1.0264 H   0  0  0  0  0  0  0  0  0  0  0  0
    0.7348   -0.9326    0.4435 H   0  0  0  0  0  0  0  0  0  0  0  0
    2.1614   -0.0359   -0.0188 H   0  0  0  0  0  0  0  0  0  0  0  0
    1.3596    1.8746    0.9741 H   0  0  0  0  0  0  0  0  0  0  0  0
   -0.6915    1.3335   -0.9039 H   0  0  0  0  0  0  0  0  0  0  0  0
   -1.2260    2.1987    0.5105 H   0  0  0  0  0  0  0  0  0  0  0  0
    1.2735    3.2978   -0.1121 H   0  0  0  0  0  0  0  0  0  0  0  0
   -1.4352    4.2183   -0.7576 H   0  0  0  0  0  0  0  0  0  0  0  0
   -2.4487    5.4594    1.2050 H   0  0  0  0  0  0  0  0  0  0  0  0
   -1.5555    5.6214    2.6980 H   0  0  0  0  0  0  0  0  0  0  0  0
   -1.0351    6.4842    1.2705 H   0  0  0  0  0  0  0  0  0  0  0  0
   -0.6109    2.2810    1.4729 H   0  0  0  0  0  0  0  0  0  0  0  0
   -1.3066    3.1546    2.8167 H   0  0  0  0  0  0  0  0  0  0  0  0
   -2.1998    2.9926    1.3238 H   0  0  0  0  0  0  0  0  0  0  0  0
    0.6158    4.5966    2.8002 H   0  0  0  0  0  0  0  0  0  0  0  0
   -0.4488   -0.1647    2.3669 H   0  0  0  0  0  0  0  0  0  0  0  0
    2.7517   -0.0505    2.3100 H   0  0  0  0  0  0  0  0  0  0  0  0
    2.8849    0.2392    4.0280 H   0  0  0  0  0  0  0  0  0  0  0  0
    1.7585   -0.9542    3.4280 H   0  0  0  0  0  0  0  0  0  0  0  0
    0.2051    2.7423    3.7601 H   0  0  0  0  0  0  0  0  0  0  0  0
   -0.3147    1.2381    4.5592 H   0  0  0  0  0  0  0  0  0  0  0  0
    1.4413    1.2679    5.9287 H   0  0  0  0  0  0  0  0  0  0  0  0
    2.3525    2.3491    4.9018 H   0  0  0  0  0  0  0  0  0  0  0  0
    1.1544    5.4520    3.5358 H   0  0  0  0  0  0  0  0  0  0  0  0
    1.0503    3.7083    3.4937 H   0  0  0  0  0  0  0  0  0  0  0  0
    3.2080    5.3616    5.0389 H   0  0  0  0  0  0  0  0  0  0  0  0
    3.1330    4.4346    6.5181 H   0  0  0  0  0  0  0  0  0  0  0  0
    4.3788    3.2233    4.7901 H   0  0  0  0  0  0  0  0  0  0  0  0
    2.9133    2.3715    5.2140 H   0  0  0  0  0  0  0  0  0  0  0  0
    1.7840    3.3471    3.2703 H   0  0  0  0  0  0  0  0  0  0  0  0
    5.0542    1.7286    3.5974 H   0  0  0  0  0  0  0  0  0  0  0  0
    3.8088    1.9114    0.2827 H   0  0  0  0  0  0  0  0  0  0  0  0
    5.2219    1.1768   -0.5157 H   0  0  0  0  0  0  0  0  0  0  0  0
    6.4653    3.0998    0.0665 H   0  0  0  0  0  0  0  0  0  0  0  0
    3.9775    3.6155   -1.2769 H   0  0  0  0  0  0  0  0  0  0  0  0
    5.3013    5.0559    0.9633 H   0  0  0  0  0  0  0  0  0  0  0  0
    3.0646    3.2658    1.1698 H   0  0  0  0  0  0  0  0  0  0  0  0
    6.3520    3.5374    2.5673 H   0  0  0  0  0  0  0  0  0  0  0  0
    3.7578    4.4117    3.4343 H   0  0  0  0  0  0  0  0  0  0  0  0
    0.0619    7.0086    8.3573 H   0  0  0  0  0  0  0  0  0  0  0  0
    1.5948    7.0454    9.1951 H   0  0  0  0  0  0  0  0  0  0  0  0
    1.4144    7.8726    7.6666 H   0  0  0  0  0  0  0  0  0  0  0  0
    0.0811    4.5276    8.4312 H   0  0  0  0  0  0  0  0  0  0  0  0
    1.4472    3.6452    7.7924 H   0  0  0  0  0  0  0  0  0  0  0  0
    1.6140    4.5645    9.2689 H   0  0  0  0  0  0  0  0  0  0  0  0
   -0.1751    5.7027    6.2599 H   0  0  0  0  0  0  0  0  0  0  0  0
    1.1636    7.8178    5.9154 H   0  0  0  0  0  0  0  0  0  0  0  0
    2.3322    6.8508    5.0485 H   0  0  0  0  0  0  0  0  0  0  0  0
    0.6200    6.0968    3.6208 H   0  0  0  0  0  0  0  0  0  0  0  0
   -0.5156    7.1952    4.4420 H   0  0  0  0  0  0  0  0  0  0  0  0
    1.4116    8.9746    3.0480 H   0  0  0  0  0  0  0  0  0  0  0  0
   -0.4359   10.0294    1.2769 H   0  0  0  0  0  0  0  0  0  0  0  0
   -1.8530    9.0135    1.3900 H   0  0  0  0  0  0  0  0  0  0  0  0
   -1.1647    9.7168    2.8338 H   0  0  0  0  0  0  0  0  0  0  0  0
    0.9658    6.4069    1.4838 H   0  0  0  0  0  0  0  0  0  0  0  0
    0.8420    8.7853   -0.1719 H   0  0  0  0  0  0  0  0  0  0  0  0
  1  2  1  0  0  0  0
  1 45  1  0  0  0  0
  1 46  1  0  0  0  0
  1 47  1  0  0  0  0
  2  3  1  0  0  0  0
  2 13  1  0  0  0  0
  2 48  1  0  0  0  0
  3  4  1  0  0  0  0
  3 49  1  0  0  0  0
  3 50  1  0  0  0  0
  4  5  1  0  0  0  0
  4  8  1  0  0  0  0
  4 51  1  0  0  0  0
  5  6  1  0  0  0  0
  6  7  1  0  0  0  0
  6 13  1  0  0  0  0
  6 43  1  0  0  0  0
  7  8  1  0  0  0  0
  8  9  1  0  0  0  0
  8 52  1  0  0  0  0
  9 10  1  0  0  0  0
  9 11  1  0  0  0  0
  9 12  1  0  0  0  0
 10 53  1  0  0  0  0
 10 54  1  0  0  0  0
 10 55  1  0  0  0  0
 11 56  1  0  0  0  0
 11 57  1  0  0  0  0
 11 58  1  0  0  0  0
 12 59  1  0  0  0  0
 13 14  1  0  0  0  0
 13 60  1  0  0  0  0
 14 15  1  0  0  0  0
 14 16  1  0  0  0  0
 14 41  1  0  0  0  0
 15 61  1  0  0  0  0
 15 62  1  0  0  0  0
 15 63  1  0  0  0  0
 16 17  1  0  0  0  0
 16 64  1  0  0  0  0
 16 65  1  0  0  0  0
 17 18  1  0  0  0  0
 17 66  1  0  0  0  0
 17 67  1  0  0  0  0
 18 19  1  0  0  0  0
 18 20  1  0  0  0  0
 18 40  1  0  0  0  0
 19 20  1  0  0  0  0
 19 68  1  0  0  0  0
 19 69  1  0  0  0  0
 20 21  1  0  0  0  0
 20 37  1  0  0  0  0
 21 22  1  0  0  0  0
 21 70  1  0  0  0  0
 21 71  1  0  0  0  0
 22 23  1  0  0  0  0
 22 72  1  0  0  0  0
 22 73  1  0  0  0  0
 23 24  1  0  0  0  0
 23 34  1  0  0  0  0
 23 74  1  0  0  0  0
 24 25  1  0  0  0  0
 25 26  1  0  0  0  0
 25 32  1  0  0  0  0
 25 75  1  0  0  0  0
 26 27  1  0  0  0  0
 27 28  1  0  0  0  0
 27 76  1  0  0  0  0
 27 77  1  0  0  0  0
 28 29  1  0  0  0  0
 28 30  1  0  0  0  0
 28 78  1  0  0  0  0
 29 79  1  0  0  0  0
 30 31  1  0  0  0  0
 30 32  1  0  0  0  0
 30 80  1  0  0  0  0
 31 81  1  0  0  0  0
 32 33  1  0  0  0  0
 32 82  1  0  0  0  0
 33 83  1  0  0  0  0
 34 35  1  0  0  0  0
 34 36  1  0  0  0  0
 34 37  1  0  0  0  0
 35 84  1  0  0  0  0
 35 85  1  0  0  0  0
 35 86  1  0  0  0  0
 36 87  1  0  0  0  0
 36 88  1  0  0  0  0
 36 89  1  0  0  0  0
 37 38  1  0  0  0  0
 37 90  1  0  0  0  0
 38 39  1  0  0  0  0
 38 91  1  0  0  0  0
 38 92  1  0  0  0  0
 39 40  1  0  0  0  0
 39 93  1  0  0  0  0
 39 94  1  0  0  0  0
 40 41  1  0  0  0  0
 40 95  1  0  0  0  0
 41 42  1  0  0  0  0
 41 43  1  0  0  0  0
 42 96  1  0  0  0  0
 42 97  1  0  0  0  0
 42 98  1  0  0  0  0
 43 44  1  0  0  0  0
 43 99  1  0  0  0  0
 44100  1  0  0  0  0
M  END
