REMARK  Name = 
REMARK  11 active torsions:
REMARK  status: ('A' for Active; 'I' for Inactive)
REMARK    1  A    between atoms: C_1  and  O_2
REMARK    2  A    between atoms: O_2  and  C_3
REMARK    3  A    between atoms: C_6  and  C_7
REMARK    4  A    between atoms: C_8  and  C_9
REMARK    5  A    between atoms: C_11  and  O_12
REMARK    6  A    between atoms: O_12  and  C_13
REMARK    7  A    between atoms: C_14  and  O_15
REMARK    8  A    between atoms: O_15  and  C_16
REMARK    9  A    between atoms: C_17  and  O_18
REMARK   10  A    between atoms: O_18  and  C_19
REMARK   11  A    between atoms: C_22  and  O_23
REMARK                            x       y       z     vdW  Elec       q    Type
REMARK                         _______ _______ _______ _____ _____    ______ ____
ROOT
ATOM      1  C   UNL     1      -1.919  -1.439   5.662  0.00  0.00    +0.000 C 
ATOM      2  C   UNL     1      -2.206  -0.629   6.717  0.00  0.00    +0.000 C 
ENDROOT
BRANCH   1   6
ATOM      3  C   UNL     1      -0.105   0.205   2.148  0.00  0.00    +0.000 A 
ATOM      4  C   UNL     1      -0.371   1.009   3.230  0.00  0.00    +0.000 A 
ATOM      5  C   UNL     1      -0.959   0.476   4.361  0.00  0.00    +0.000 A 
ATOM      6  C   UNL     1      -1.262  -0.863   4.418  0.00  0.00    +0.000 A 
ATOM      7  C   UNL     1      -0.973  -1.685   3.351  0.00  0.00    +0.000 A 
ATOM      8  C   UNL     1      -0.379  -1.178   2.191  0.00  0.00    +0.000 A 
BRANCH   3  10
ATOM      9  C   UNL     1       0.919   0.034  -0.048  0.00  0.00    +0.000 C 
ATOM     10  O   UNL     1       0.446   0.786   1.059  0.00  0.00    +0.000 OA
ENDBRANCH   3  10
BRANCH   8  11
ATOM     11  O   UNL     1      -0.063  -2.025   1.096  0.00  0.00    +0.000 OA
ATOM     12  H   UNL     1       0.362  -1.643   0.275  0.00  0.00    +0.000 HD
ENDBRANCH   8  11
ENDBRANCH   1   6
BRANCH   2  13
ATOM     13  C   UNL     1      -2.863  -1.204   7.961  0.00  0.00    +0.000 A 
ATOM     14  C   UNL     1      -2.415  -2.405   8.521  0.00  0.00    +0.000 A 
ATOM     15  C   UNL     1      -3.140  -2.926   9.613  0.00  0.00    +0.000 A 
ATOM     16  C   UNL     1      -4.272  -2.296  10.072  0.00  0.00    +0.000 A 
ATOM     17  C   UNL     1      -4.687  -1.112   9.495  0.00  0.00    +0.000 A 
ATOM     18  C   UNL     1      -3.983  -0.567   8.448  0.00  0.00    +0.000 A 
BRANCH  15  19
ATOM     19  O   UNL     1      -2.767  -4.069  10.233  0.00  0.00    +0.000 OA
ATOM     20  C   UNL     1      -1.605  -4.763   9.803  0.00  0.00    +0.000 C 
ENDBRANCH  15  19
BRANCH  16  21
ATOM     21  O   UNL     1      -5.016  -2.864  11.140  0.00  0.00    +0.000 OA
ATOM     22  C   UNL     1      -4.591  -4.081  11.733  0.00  0.00    +0.000 C 
ENDBRANCH  16  21
BRANCH  17  23
ATOM     23  O   UNL     1      -5.847  -0.455   9.985  0.00  0.00    +0.000 OA
ATOM     24  C   UNL     1      -6.276   0.763   9.394  0.00  0.00    +0.000 C 
ENDBRANCH  17  23
ENDBRANCH   2  13
TORSDOF 7
