REMARK  Name = 
REMARK  18 active torsions:
REMARK  status: ('A' for Active; 'I' for Inactive)
REMARK    1  A    between atoms: C_1  and  O_2
REMARK    2  A    between atoms: O_2  and  C_3
REMARK    3  A    between atoms: C_6  and  C_7
REMARK    4  A    between atoms: C_7  and  C_8
REMARK    5  A    between atoms: C_12  and  C_13
REMARK    6  A    between atoms: C_13  and  C_14
REMARK    7  A    between atoms: C_17  and  O_18
REMARK    8  A    between atoms: O_18  and  C_19
REMARK    9  A    between atoms: C_19  and  C_20
REMARK   10  A    between atoms: C_20  and  C_21
REMARK   11  A    between atoms: C_24  and  O_25
REMARK   12  A    between atoms: O_25  and  C_26
REMARK   13  A    between atoms: C_27  and  O_28
REMARK   14  A    between atoms: O_28  and  C_29
REMARK   15  A    between atoms: C_31  and  O_32
REMARK   16  A    between atoms: O_32  and  C_33
REMARK   17  A    between atoms: C_36  and  O_37
REMARK   18  A    between atoms: O_37  and  C_38
REMARK                            x       y       z     vdW  Elec       q    Type
REMARK                         _______ _______ _______ _____ _____    ______ ____
ROOT
ATOM      1  C   UNL     1       4.611  -6.779   1.656  0.00  0.00    +0.000 A 
ATOM      2  C   UNL     1       5.173  -7.742   0.834  0.00  0.00    +0.000 A 
ATOM      3  C   UNL     1       6.065  -7.220  -0.133  0.00  0.00    +0.000 A 
ATOM      4  C   UNL     1       6.114  -5.952  -0.499  0.00  0.00    +0.000 A 
ATOM      5  C   UNL     1       5.481  -5.058   0.319  0.00  0.00    +0.000 A 
ATOM      6  C   UNL     1       4.698  -5.487   1.363  0.00  0.00    +0.000 A 
ENDROOT
BRANCH   5   7
ATOM      7  O   UNL     1       5.635  -3.666   0.085  0.00  0.00    +0.000 OA
ATOM      8  C   UNL     1       4.982  -2.728   0.928  0.00  0.00    +0.000 C 
ENDBRANCH   5   7
BRANCH   1   9
ATOM      9  C   UNL     1       3.818  -7.192   2.885  0.00  0.00    +0.000 C 
BRANCH   9  14
ATOM     10  C   UNL     1       1.657  -7.348   1.548  0.00  0.00    +0.000 C 
ATOM     11  C   UNL     1       0.182  -7.221   1.938  0.00  0.00    +0.000 C 
ATOM     12  O   UNL     1       0.153  -7.258   3.389  0.00  0.00    +0.000 OA
ATOM     13  C   UNL     1       1.482  -7.137   3.913  0.00  0.00    +0.000 C 
ATOM     14  C   UNL     1       2.378  -6.729   2.739  0.00  0.00    +0.000 C 
BRANCH  10  15
ATOM     15  C   UNL     1       1.884  -6.553   0.272  0.00  0.00    +0.000 C 
BRANCH  15  19
ATOM     16  C   UNL     1       0.835  -2.438   0.726  0.00  0.00    +0.000 A 
ATOM     17  C   UNL     1      -0.162  -3.394   0.832  0.00  0.00    +0.000 A 
ATOM     18  C   UNL     1       0.322  -4.723   0.885  0.00  0.00    +0.000 A 
ATOM     19  C   UNL     1       1.533  -5.095   0.515  0.00  0.00    +0.000 A 
ATOM     20  C   UNL     1       2.455  -4.097   0.361  0.00  0.00    +0.000 A 
ATOM     21  C   UNL     1       2.084  -2.775   0.425  0.00  0.00    +0.000 A 
BRANCH  16  23
ATOM     22  C   UNL     1       0.966  -0.075   0.057  0.00  0.00    +0.000 C 
ATOM     23  O   UNL     1       0.492  -1.077   0.944  0.00  0.00    +0.000 OA
ENDBRANCH  16  23
BRANCH  21  24
ATOM     24  O   UNL     1       3.044  -1.762   0.166  0.00  0.00    +0.000 OA
ATOM     25  C   UNL     1       2.667  -0.394   0.231  0.00  0.00    +0.000 C 
ENDBRANCH  21  24
ENDBRANCH  15  19
ENDBRANCH  10  15
ENDBRANCH   9  14
ENDBRANCH   1   9
BRANCH   4  26
ATOM     26  O   UNL     1       6.789  -5.540  -1.679  0.00  0.00    +0.000 OA
BRANCH  26  27
ATOM     27  C   UNL     1       6.819  -4.166  -2.036  0.00  0.00    +0.000 C 
BRANCH  27  28
ATOM     28  C   UNL     1       5.398  -3.662  -2.231  0.00  0.00    +0.000 C 
BRANCH  28  29
ATOM     29  C   UNL     1       4.618  -3.832  -0.937  0.00  0.00    +0.000 C 
ATOM     30  C   UNL     1       5.013  -5.163  -0.284  0.00  0.00    +0.000 C 
ATOM     31  C   UNL     1       4.358  -5.338   1.081  0.00  0.00    +0.000 C 
ATOM     32  C   UNL     1       4.690  -4.177   2.005  0.00  0.00    +0.000 C 
ATOM     33  C   UNL     1       4.280  -2.861   1.357  0.00  0.00    +0.000 C 
ATOM     34  C   UNL     1       4.947  -2.674   0.001  0.00  0.00    +0.000 C 
BRANCH  32  35
ATOM     35  O   UNL     1       6.089  -4.161   2.249  0.00  0.00    +0.000 OA
ATOM     36  C   UNL     1       6.782  -4.002   1.020  0.00  0.00    +0.000 C 
ENDBRANCH  32  35
BRANCH  33  37
ATOM     37  O   UNL     1       4.694  -1.799   2.205  0.00  0.00    +0.000 OA
ATOM     38  C   UNL     1       6.105  -1.837   2.358  0.00  0.00    +0.000 C 
ENDBRANCH  33  37
ENDBRANCH  28  29
ENDBRANCH  27  28
ENDBRANCH  26  27
ENDBRANCH   4  26
TORSDOF 13
