
 OpenBabel03132514253D

 82 85  0  0  0  0  0  0  0  0999 V2000
    0.9657   -0.0747    0.0570 C   0  0  0  0  0  0  0  0  0  0  0  0
    0.4924   -1.0774    0.9441 O   0  0  0  0  0  0  0  0  0  0  0  0
    0.8354   -2.4379    0.7259 C   0  0  0  0  0  0  0  0  0  0  0  0
   -0.1616   -3.3936    0.8318 C   0  0  0  0  0  0  0  0  0  0  0  0
    0.3215   -4.7225    0.8854 C   0  0  0  0  0  0  0  0  0  0  0  0
    1.5331   -5.0945    0.5146 C   0  0  0  0  0  0  0  0  0  0  0  0
    1.8838   -6.5534    0.2717 C   0  0  0  0  0  0  0  0  0  0  0  0
    1.6575   -7.3481    1.5475 C   0  0  0  0  0  0  0  0  0  0  0  0
    0.1824   -7.2205    1.9380 C   0  0  0  0  0  0  0  0  0  0  0  0
    0.1529   -7.2576    3.3887 O   0  0  0  0  0  0  0  0  0  0  0  0
    1.4818   -7.1367    3.9126 C   0  0  0  0  0  0  0  0  0  0  0  0
    2.3778   -6.7294    2.7388 C   0  0  0  0  0  0  0  0  0  0  0  0
    3.8181   -7.1924    2.8850 C   0  0  0  0  0  0  0  0  0  0  0  0
    4.6105   -6.7790    1.6556 C   0  0  0  0  0  0  0  0  0  0  0  0
    5.1731   -7.7416    0.8337 C   0  0  0  0  0  0  0  0  0  0  0  0
    6.0646   -7.2199   -0.1333 C   0  0  0  0  0  0  0  0  0  0  0  0
    6.1143   -5.9519   -0.4993 C   0  0  0  0  0  0  0  0  0  0  0  0
    6.7890   -5.5395   -1.6788 O   0  0  0  0  0  0  0  0  0  0  0  0
    6.8185   -4.1656   -2.0363 C   0  0  0  0  0  0  0  0  0  0  0  0
    5.3976   -3.6620   -2.2309 C   0  0  0  0  0  0  0  0  0  0  0  0
    4.6180   -3.8323   -0.9372 C   0  0  0  0  0  0  0  0  0  0  0  0
    5.0129   -5.1629   -0.2841 C   0  0  0  0  0  0  0  0  0  0  0  0
    4.3584   -5.3381    1.0812 C   0  0  0  0  0  0  0  0  0  0  0  0
    4.6900   -4.1769    2.0052 C   0  0  0  0  0  0  0  0  0  0  0  0
    6.0888   -4.1606    2.2489 O   0  0  0  0  0  0  0  0  0  0  0  0
    6.7816   -4.0015    1.0196 C   0  0  0  0  0  0  0  0  0  0  0  0
    4.2805   -2.8606    1.3568 C   0  0  0  0  0  0  0  0  0  0  0  0
    4.6935   -1.7993    2.2051 O   0  0  0  0  0  0  0  0  0  0  0  0
    6.1048   -1.8372    2.3578 C   0  0  0  0  0  0  0  0  0  0  0  0
    4.9467   -2.6743    0.0013 C   0  0  0  0  0  0  0  0  0  0  0  0
    5.4811   -5.0577    0.3185 C   0  0  0  0  0  0  0  0  0  0  0  0
    5.6348   -3.6655    0.0851 O   0  0  0  0  0  0  0  0  0  0  0  0
    4.9818   -2.7278    0.9282 C   0  0  0  0  0  0  0  0  0  0  0  0
    4.6982   -5.4868    1.3629 C   0  0  0  0  0  0  0  0  0  0  0  0
    2.4552   -4.0967    0.3608 C   0  0  0  0  0  0  0  0  0  0  0  0
    2.0839   -2.7754    0.4247 C   0  0  0  0  0  0  0  0  0  0  0  0
    3.0440   -1.7615    0.1664 O   0  0  0  0  0  0  0  0  0  0  0  0
    2.6671   -0.3939    0.2307 C   0  0  0  0  0  0  0  0  0  0  0  0
    0.6091    0.8820    0.3770 H   0  0  0  0  0  0  0  0  0  0  0  0
    0.6091   -0.2759   -0.9316 H   0  0  0  0  0  0  0  0  0  0  0  0
    2.0357   -0.0747    0.0570 H   0  0  0  0  0  0  0  0  0  0  0  0
   -1.2026   -3.1492    0.8695 H   0  0  0  0  0  0  0  0  0  0  0  0
   -0.3410   -5.4785    1.2520 H   0  0  0  0  0  0  0  0  0  0  0  0
    1.2629   -6.9446   -0.5070 H   0  0  0  0  0  0  0  0  0  0  0  0
    2.9108   -6.6298   -0.0187 H   0  0  0  0  0  0  0  0  0  0  0  0
    1.9939   -8.3450    1.3528 H   0  0  0  0  0  0  0  0  0  0  0  0
   -0.2489   -6.3179    1.5582 H   0  0  0  0  0  0  0  0  0  0  0  0
   -0.3820   -8.0342    1.5328 H   0  0  0  0  0  0  0  0  0  0  0  0
    1.8106   -8.0567    4.3488 H   0  0  0  0  0  0  0  0  0  0  0  0
    1.5110   -6.3882    4.6767 H   0  0  0  0  0  0  0  0  0  0  0  0
    2.4349   -5.6649    2.6465 H   0  0  0  0  0  0  0  0  0  0  0  0
    4.2503   -6.7442    3.7552 H   0  0  0  0  0  0  0  0  0  0  0  0
    3.8421   -8.2577    2.9832 H   0  0  0  0  0  0  0  0  0  0  0  0
    4.9535   -8.7851    0.9220 H   0  0  0  0  0  0  0  0  0  0  0  0
    6.7459   -7.8999   -0.6006 H   0  0  0  0  0  0  0  0  0  0  0  0
    7.2922   -3.6046   -1.2579 H   0  0  0  0  0  0  0  0  0  0  0  0
    7.3673   -4.0457   -2.9470 H   0  0  0  0  0  0  0  0  0  0  0  0
    5.4199   -2.6267   -2.5003 H   0  0  0  0  0  0  0  0  0  0  0  0
    4.9239   -4.2230   -3.0093 H   0  0  0  0  0  0  0  0  0  0  0  0
    3.5673   -3.8358   -1.1392 H   0  0  0  0  0  0  0  0  0  0  0  0
    4.6787   -5.9573   -0.9182 H   0  0  0  0  0  0  0  0  0  0  0  0
    6.0759   -5.1883   -0.1647 H   0  0  0  0  0  0  0  0  0  0  0  0
    4.7322   -6.2384    1.5222 H   0  0  0  0  0  0  0  0  0  0  0  0
    3.2972   -5.3911    0.9549 H   0  0  0  0  0  0  0  0  0  0  0  0
    4.1618   -4.2965    2.9280 H   0  0  0  0  0  0  0  0  0  0  0  0
    6.5427   -4.8156    0.3676 H   0  0  0  0  0  0  0  0  0  0  0  0
    6.4886   -3.0799    0.5617 H   0  0  0  0  0  0  0  0  0  0  0  0
    7.8357   -3.9892    1.2032 H   0  0  0  0  0  0  0  0  0  0  0  0
    3.2186   -2.8531    1.2260 H   0  0  0  0  0  0  0  0  0  0  0  0
    6.3916   -2.7725    2.7912 H   0  0  0  0  0  0  0  0  0  0  0  0
    6.5701   -1.7302    1.4003 H   0  0  0  0  0  0  0  0  0  0  0  0
    6.4160   -1.0376    2.9970 H   0  0  0  0  0  0  0  0  0  0  0  0
    6.0066   -2.6442    0.1452 H   0  0  0  0  0  0  0  0  0  0  0  0
    4.6000   -1.7612   -0.4358 H   0  0  0  0  0  0  0  0  0  0  0  0
    3.9241   -2.8825    0.8817 H   0  0  0  0  0  0  0  0  0  0  0  0
    5.3176   -2.8597    1.9356 H   0  0  0  0  0  0  0  0  0  0  0  0
    5.2118   -1.7348    0.6027 H   0  0  0  0  0  0  0  0  0  0  0  0
    4.1542   -4.7731    1.9458 H   0  0  0  0  0  0  0  0  0  0  0  0
    3.4808   -4.3485    0.1883 H   0  0  0  0  0  0  0  0  0  0  0  0
    1.8921   -0.2036   -0.4820 H   0  0  0  0  0  0  0  0  0  0  0  0
    2.3108   -0.1680    1.2140 H   0  0  0  0  0  0  0  0  0  0  0  0
    3.5146    0.2204    0.0086 H   0  0  0  0  0  0  0  0  0  0  0  0
  1  2  1  0  0  0  0
  1 39  1  0  0  0  0
  1 40  1  0  0  0  0
  1 41  1  0  0  0  0
  2  3  1  0  0  0  0
  3  4  1  0  0  0  0
  3 36  2  0  0  0  0
  4  5  2  0  0  0  0
  4 42  1  0  0  0  0
  5  6  1  0  0  0  0
  5 43  1  0  0  0  0
  6  7  1  0  0  0  0
  6 35  2  0  0  0  0
  7  8  1  0  0  0  0
  7 44  1  0  0  0  0
  7 45  1  0  0  0  0
  8  9  1  0  0  0  0
  8 12  1  0  0  0  0
  8 46  1  0  0  0  0
  9 10  1  0  0  0  0
  9 47  1  0  0  0  0
  9 48  1  0  0  0  0
 10 11  1  0  0  0  0
 11 12  1  0  0  0  0
 11 49  1  0  0  0  0
 11 50  1  0  0  0  0
 12 13  1  0  0  0  0
 12 51  1  0  0  0  0
 13 14  1  0  0  0  0
 13 52  1  0  0  0  0
 13 53  1  0  0  0  0
 14 15  1  0  0  0  0
 14 34  2  0  0  0  0
 15 16  2  0  0  0  0
 15 54  1  0  0  0  0
 16 17  1  0  0  0  0
 16 55  1  0  0  0  0
 17 18  1  0  0  0  0
 17 31  2  0  0  0  0
 18 19  1  0  0  0  0
 19 20  1  0  0  0  0
 19 56  1  0  0  0  0
 19 57  1  0  0  0  0
 20 21  1  0  0  0  0
 20 58  1  0  0  0  0
 20 59  1  0  0  0  0
 21 22  1  0  0  0  0
 21 30  1  0  0  0  0
 21 60  1  0  0  0  0
 22 23  1  0  0  0  0
 22 61  1  0  0  0  0
 22 62  1  0  0  0  0
 23 24  1  0  0  0  0
 23 63  1  0  0  0  0
 23 64  1  0  0  0  0
 24 25  1  0  0  0  0
 24 27  1  0  0  0  0
 24 65  1  0  0  0  0
 25 26  1  0  0  0  0
 26 66  1  0  0  0  0
 26 67  1  0  0  0  0
 26 68  1  0  0  0  0
 27 28  1  0  0  0  0
 27 30  1  0  0  0  0
 27 69  1  0  0  0  0
 28 29  1  0  0  0  0
 29 70  1  0  0  0  0
 29 71  1  0  0  0  0
 29 72  1  0  0  0  0
 30 73  1  0  0  0  0
 30 74  1  0  0  0  0
 31 32  1  0  0  0  0
 31 34  1  0  0  0  0
 32 33  1  0  0  0  0
 33 75  1  0  0  0  0
 33 76  1  0  0  0  0
 33 77  1  0  0  0  0
 34 78  1  0  0  0  0
 35 36  1  0  0  0  0
 35 79  1  0  0  0  0
 36 37  1  0  0  0  0
 37 38  1  0  0  0  0
 38 80  1  0  0  0  0
 38 81  1  0  0  0  0
 38 82  1  0  0  0  0
M  END
