REMARK  Name = 
REMARK  18 active torsions:
REMARK  status: ('A' for Active; 'I' for Inactive)
REMARK    1  A    between atoms: C_1  and  O_2
REMARK    2  A    between atoms: O_2  and  C_3
REMARK    3  A    between atoms: C_6  and  C_7
REMARK    4  A    between atoms: C_7  and  C_8
REMARK    5  A    between atoms: C_12  and  C_13
REMARK    6  A    between atoms: C_13  and  C_14
REMARK    7  A    between atoms: C_17  and  O_18
REMARK    8  A    between atoms: O_18  and  C_19
REMARK    9  A    between atoms: C_19  and  C_20
REMARK   10  A    between atoms: C_20  and  C_21
REMARK   11  A    between atoms: C_24  and  O_25
REMARK   12  A    between atoms: O_25  and  C_26
REMARK   13  A    between atoms: C_27  and  O_28
REMARK   14  A    between atoms: O_28  and  C_29
REMARK   15  A    between atoms: C_31  and  O_32
REMARK   16  A    between atoms: O_32  and  C_33
REMARK   17  A    between atoms: C_36  and  O_37
REMARK   18  A    between atoms: O_37  and  C_38
REMARK                            x       y       z     vdW  Elec       q    Type
REMARK                         _______ _______ _______ _____ _____    ______ ____
ROOT
ATOM      1  C   UNL     1       4.833   4.976  -4.203  0.00  0.00    +0.000 A 
ATOM      2  C   UNL     1       5.504   6.130  -3.831  0.00  0.00    +0.000 A 
ATOM      3  C   UNL     1       6.370   5.957  -2.726  0.00  0.00    +0.000 A 
ATOM      4  C   UNL     1       6.314   4.944  -1.881  0.00  0.00    +0.000 A 
ATOM      5  C   UNL     1       5.579   3.862  -2.277  0.00  0.00    +0.000 A 
ATOM      6  C   UNL     1       4.810   3.908  -3.415  0.00  0.00    +0.000 A 
ENDROOT
BRANCH   5   7
ATOM      7  O   UNL     1       5.612   2.672  -1.502  0.00  0.00    +0.000 OA
ATOM      8  C   UNL     1       4.852   1.542  -1.905  0.00  0.00    +0.000 C 
ENDBRANCH   5   7
BRANCH   1   9
ATOM      9  C   UNL     1       4.110   4.933  -5.539  0.00  0.00    +0.000 C 
BRANCH   9  14
ATOM     10  C   UNL     1       1.940   5.753  -4.491  0.00  0.00    +0.000 C 
ATOM     11  C   UNL     1       0.469   5.590  -4.884  0.00  0.00    +0.000 C 
ATOM     12  O   UNL     1       0.478   5.059  -6.235  0.00  0.00    +0.000 OA
ATOM     13  C   UNL     1       1.803   4.648  -6.596  0.00  0.00    +0.000 C 
ATOM     14  C   UNL     1       2.631   4.668  -5.307  0.00  0.00    +0.000 C 
BRANCH  10  15
ATOM     15  C   UNL     1       2.130   5.563  -2.995  0.00  0.00    +0.000 C 
BRANCH  15  19
ATOM     16  C   UNL     1       0.785   1.731  -1.672  0.00  0.00    +0.000 A 
ATOM     17  C   UNL     1      -0.143   2.619  -2.190  0.00  0.00    +0.000 A 
ATOM     18  C   UNL     1       0.432   3.761  -2.796  0.00  0.00    +0.000 A 
ATOM     19  C   UNL     1       1.673   4.168  -2.600  0.00  0.00    +0.000 A 
ATOM     20  C   UNL     1       2.524   3.268  -2.022  0.00  0.00    +0.000 A 
ATOM     21  C   UNL     1       2.059   2.075  -1.524  0.00  0.00    +0.000 A 
BRANCH  16  23
ATOM     22  C   UNL     1       0.915  -0.023   0.048  0.00  0.00    +0.000 C 
ATOM     23  O   UNL     1       0.442   0.432  -1.212  0.00  0.00    +0.000 OA
ENDBRANCH  16  23
BRANCH  21  24
ATOM     24  O   UNL     1       2.948   1.202  -0.844  0.00  0.00    +0.000 OA
ATOM     25  C   UNL     1       2.474  -0.033  -0.326  0.00  0.00    +0.000 C 
ENDBRANCH  21  24
ENDBRANCH  15  19
ENDBRANCH  10  15
ENDBRANCH   9  14
ENDBRANCH   1   9
BRANCH   4  26
ATOM     26  O   UNL     1       6.981   4.978  -0.627  0.00  0.00    +0.000 OA
BRANCH  26  27
ATOM     27  C   UNL     1       6.895   3.866   0.253  0.00  0.00    +0.000 C 
BRANCH  27  28
ATOM     28  C   UNL     1       5.440   3.620   0.617  0.00  0.00    +0.000 C 
BRANCH  28  29
ATOM     29  C   UNL     1       4.643   3.331  -0.645  0.00  0.00    +0.000 C 
ATOM     30  C   UNL     1       4.162   1.874  -0.625  0.00  0.00    +0.000 C 
ATOM     31  C   UNL     1       3.286   1.553  -1.830  0.00  0.00    +0.000 C 
ATOM     32  C   UNL     1       2.099   2.500  -1.917  0.00  0.00    +0.000 C 
ATOM     33  C   UNL     1       2.585   3.943  -1.952  0.00  0.00    +0.000 C 
ATOM     34  C   UNL     1       3.446   4.273  -0.741  0.00  0.00    +0.000 C 
BRANCH  32  35
ATOM     35  O   UNL     1       1.271   2.315  -0.779  0.00  0.00    +0.000 OA
ATOM     36  C   UNL     1       2.015   2.593   0.398  0.00  0.00    +0.000 C 
ENDBRANCH  32  35
BRANCH  33  37
ATOM     37  O   UNL     1       1.449   4.796  -1.935  0.00  0.00    +0.000 OA
ATOM     38  C   UNL     1       0.706   4.571  -0.747  0.00  0.00    +0.000 C 
ENDBRANCH  33  37
ENDBRANCH  28  29
ENDBRANCH  27  28
ENDBRANCH  26  27
ENDBRANCH   4  26
TORSDOF 13
