REMARK  Name = 
REMARK  11 active torsions:
REMARK  status: ('A' for Active; 'I' for Inactive)
REMARK    1  A    between atoms: C_1  and  C_2
REMARK    2  A    between atoms: C_5  and  C_6
REMARK    3  A    between atoms: C_6  and  O_8
REMARK    4  A    between atoms: C_11  and  C_12
REMARK    5  A    between atoms: C_17  and  C_18
REMARK    6  A    between atoms: C_20  and  O_21
REMARK    7  A    between atoms: C_22  and  O_23
REMARK    8  A    between atoms: C_24  and  C_25
REMARK    9  A    between atoms: C_24  and  C_26
REMARK   10  A    between atoms: C_30  and  C_31
REMARK   11  A    between atoms: C_33  and  C_34
REMARK                            x       y       z     vdW  Elec       q    Type
REMARK                         _______ _______ _______ _____ _____    ______ ____
ROOT
ATOM      1  C   UNL     1       1.046  -0.085   0.026  0.00  0.00    +0.000 C 
ATOM      2  C   UNL     1       0.540   0.677  -1.188  0.00  0.00    +0.000 C 
ATOM      3  C   UNL     1      -0.599   0.073  -1.858  0.00  0.00    +0.000 C 
ATOM      4  C   UNL     1      -0.337  -0.715  -2.912  0.00  0.00    +0.000 C 
ATOM      5  C   UNL     1      -1.467  -1.375  -3.659  0.00  0.00    +0.000 C 
ATOM      6  C   UNL     1      -1.253  -1.202  -5.164  0.00  0.00    +0.000 C 
ATOM      7  C   UNL     1      -2.105  -0.038  -5.668  0.00  0.00    +0.000 C 
ATOM      8  C   UNL     1      -1.191   1.094  -6.141  0.00  0.00    +0.000 C 
ATOM      9  C   UNL     1      -0.503   0.450  -7.333  0.00  0.00    +0.000 C 
ATOM     10  C   UNL     1      -0.176   3.739  -2.612  0.00  0.00    +0.000 C 
ATOM     11  C   UNL     1       0.223   4.026  -3.827  0.00  0.00    +0.000 C 
ATOM     12  C   UNL     1      -0.767   4.523  -4.848  0.00  0.00    +0.000 C 
ATOM     13  C   UNL     1      -0.801   3.559  -6.037  0.00  0.00    +0.000 C 
ATOM     14  C   UNL     1       0.580   2.960  -6.244  0.00  0.00    +0.000 C 
ATOM     15  C   UNL     1       1.310   4.165  -6.814  0.00  0.00    +0.000 C 
ATOM     16  C   UNL     1       1.060   2.409  -4.899  0.00  0.00    +0.000 C 
ATOM     17  C   UNL     1       0.444   1.143  -4.657  0.00  0.00    +0.000 C 
ATOM     18  C   UNL     1       0.757   0.146  -5.631  0.00  0.00    +0.000 C 
ATOM     19  C   UNL     1       0.265   0.605  -7.006  0.00  0.00    +0.000 C 
ATOM     20  C   UNL     1      -1.247   0.756  -6.983  0.00  0.00    +0.000 C 
ATOM     21  C   UNL     1       0.650  -0.426  -8.054  0.00  0.00    +0.000 C 
ATOM     22  C   UNL     1       0.913   1.950  -7.348  0.00  0.00    +0.000 C 
ATOM     23  C   UNL     1       0.380   2.452  -8.680  0.00  0.00    +0.000 C 
ATOM     24  C   UNL     1      -2.155   2.433  -4.276  0.00  0.00    +0.000 C 
ATOM     25  C   UNL     1      -1.806   2.441  -5.755  0.00  0.00    +0.000 C 
ATOM     26  C   UNL     1      -3.067   2.675  -6.572  0.00  0.00    +0.000 C 
ATOM     27  C   UNL     1       0.814   3.242  -1.592  0.00  0.00    +0.000 C 
ATOM     28  C   UNL     1       0.207   2.099  -0.817  0.00  0.00    +0.000 C 
ATOM     29  C   UNL     1       0.817   2.251   0.567  0.00  0.00    +0.000 C 
ENDROOT
BRANCH   5  30
ATOM     30  C   UNL     1      -2.507  -2.479  -3.567  0.00  0.00    +0.000 C 
ATOM     31  O   UNL     1      -2.570  -3.207  -2.527  0.00  0.00    +0.000 OA
BRANCH  30  32
ATOM     32  O   UNL     1      -3.408  -2.698  -4.643  0.00  0.00    +0.000 OA
ATOM     33  H   UNL     1      -4.093  -3.425  -4.582  0.00  0.00    +0.000 HD
ENDBRANCH  30  32
ENDBRANCH   5  30
BRANCH  17  34
ATOM     34  O   UNL     1      -0.959   1.350  -4.720  0.00  0.00    +0.000 OA
ATOM     35  H   UNL     1      -1.207   1.678  -5.631  0.00  0.00    +0.000 HD
ENDBRANCH  17  34
BRANCH  18  36
ATOM     36  O   UNL     1       0.120  -1.074  -5.283  0.00  0.00    +0.000 OA
ATOM     37  H   UNL     1      -0.870  -0.936  -5.253  0.00  0.00    +0.000 HD
ENDBRANCH  18  36
TORSDOF 4
