
 OpenBabel03132514253D

 82 86  0  0  0  0  0  0  0  0999 V2000
    0.9580   -0.0829   -0.0369 C   0  0  0  0  0  0  0  0  0  0  0  0
    0.4513   -0.7538    1.2294 C   0  0  0  0  0  0  0  0  0  0  0  0
    1.3470   -1.8806    1.4281 C   0  0  0  0  0  0  0  0  0  0  0  0
    0.8680   -3.0986    1.1312 C   0  0  0  0  0  0  0  0  0  0  0  0
    1.7382   -4.3150    1.3135 C   0  0  0  0  0  0  0  0  0  0  0  0
    2.9331   -5.0554    0.7351 C   0  0  0  0  0  0  0  0  0  0  0  0
    3.5288   -4.5977   -0.2901 O   0  0  0  0  0  0  0  0  0  0  0  0
    3.3838   -6.2584    1.3401 O   0  0  0  0  0  0  0  0  0  0  0  0
    0.9405   -5.4111    2.0230 C   0  0  0  0  0  0  0  0  0  0  0  0
    1.2881   -5.4091    3.5106 C   0  0  0  0  0  0  0  0  0  0  0  0
    0.0575   -4.9961    4.3203 C   0  0  0  0  0  0  0  0  0  0  0  0
   -0.8881   -6.1545    4.0477 C   0  0  0  0  0  0  0  0  0  0  0  0
   -0.0510   -0.4832    4.6338 C   0  0  0  0  0  0  0  0  0  0  0  0
   -0.9287   -1.2383    5.2470 C   0  0  0  0  0  0  0  0  0  0  0  0
   -0.5196   -2.0425    6.4543 C   0  0  0  0  0  0  0  0  0  0  0  0
   -0.7462   -3.5305    6.1766 C   0  0  0  0  0  0  0  0  0  0  0  0
   -1.9540   -3.6991    5.2693 C   0  0  0  0  0  0  0  0  0  0  0  0
   -3.1754   -3.1150    5.9603 C   0  0  0  0  0  0  0  0  0  0  0  0
   -1.7130   -2.9680    3.9464 C   0  0  0  0  0  0  0  0  0  0  0  0
   -0.5980   -3.5568    3.2737 C   0  0  0  0  0  0  0  0  0  0  0  0
    0.5019   -3.4920    4.1696 O   0  0  0  0  0  0  0  0  0  0  0  0
   -0.7786   -4.9347    2.9418 C   0  0  0  0  0  0  0  0  0  0  0  0
    0.3705   -5.4115    2.2571 O   0  0  0  0  0  0  0  0  0  0  0  0
   -0.9818   -5.7453    4.2240 C   0  0  0  0  0  0  0  0  0  0  0  0
    0.2616   -5.6483    5.0928 C   0  0  0  0  0  0  0  0  0  0  0  0
   -1.2339   -7.2019    3.8703 C   0  0  0  0  0  0  0  0  0  0  0  0
   -2.1877   -5.1866    4.9858 C   0  0  0  0  0  0  0  0  0  0  0  0
   -2.3598   -5.9377    6.2960 C   0  0  0  0  0  0  0  0  0  0  0  0
    1.3681   -2.9843    4.9801 C   0  0  0  0  0  0  0  0  0  0  0  0
    0.4912   -4.1149    5.4931 C   0  0  0  0  0  0  0  0  0  0  0  0
    1.2748   -4.9506    6.4921 C   0  0  0  0  0  0  0  0  0  0  0  0
   -0.4603    0.3205    3.4274 C   0  0  0  0  0  0  0  0  0  0  0  0
    0.6093    0.2189    2.3693 C   0  0  0  0  0  0  0  0  0  0  0  0
    0.5516    1.5739    1.6830 C   0  0  0  0  0  0  0  0  0  0  0  0
    0.6013    0.9252   -0.0736 H   0  0  0  0  0  0  0  0  0  0  0  0
    0.6013   -0.6188   -0.8916 H   0  0  0  0  0  0  0  0  0  0  0  0
    2.0280   -0.0829   -0.0369 H   0  0  0  0  0  0  0  0  0  0  0  0
   -0.5733   -1.0564    1.1711 H   0  0  0  0  0  0  0  0  0  0  0  0
    2.1504   -1.7222    0.7393 H   0  0  0  0  0  0  0  0  0  0  0  0
    1.6324   -1.8884    2.4593 H   0  0  0  0  0  0  0  0  0  0  0  0
    0.7245   -3.0551    0.0718 H   0  0  0  0  0  0  0  0  0  0  0  0
   -0.0001   -3.2458    1.7393 H   0  0  0  0  0  0  0  0  0  0  0  0
    4.1699   -6.7455    0.9596 H   0  0  0  0  0  0  0  0  0  0  0  0
   -0.1065   -5.2277    1.9003 H   0  0  0  0  0  0  0  0  0  0  0  0
    1.1869   -6.3626    1.6001 H   0  0  0  0  0  0  0  0  0  0  0  0
    1.5974   -6.3898    3.8063 H   0  0  0  0  0  0  0  0  0  0  0  0
    2.0828   -4.7155    3.6904 H   0  0  0  0  0  0  0  0  0  0  0  0
   -1.6614   -6.1653    4.7872 H   0  0  0  0  0  0  0  0  0  0  0  0
   -1.3240   -6.0384    3.0774 H   0  0  0  0  0  0  0  0  0  0  0  0
   -0.3446   -7.0754    4.0866 H   0  0  0  0  0  0  0  0  0  0  0  0
   -1.9366   -1.2841    4.8905 H   0  0  0  0  0  0  0  0  0  0  0  0
   -1.1064   -1.7435    7.2976 H   0  0  0  0  0  0  0  0  0  0  0  0
    0.5161   -1.8721    6.6621 H   0  0  0  0  0  0  0  0  0  0  0  0
   -0.9197   -4.0434    7.0995 H   0  0  0  0  0  0  0  0  0  0  0  0
   -3.3426   -3.6291    6.8837 H   0  0  0  0  0  0  0  0  0  0  0  0
   -3.0121   -2.0757    6.1552 H   0  0  0  0  0  0  0  0  0  0  0  0
   -4.0314   -3.2292    5.3285 H   0  0  0  0  0  0  0  0  0  0  0  0
   -2.5843   -3.0480    3.3305 H   0  0  0  0  0  0  0  0  0  0  0  0
   -1.5078   -1.9361    4.1413 H   0  0  0  0  0  0  0  0  0  0  0  0
   -0.4261   -3.0128    2.3685 H   0  0  0  0  0  0  0  0  0  0  0  0
    0.2902   -4.0144    4.9956 H   0  0  0  0  0  0  0  0  0  0  0  0
   -1.6377   -5.0405    2.3128 H   0  0  0  0  0  0  0  0  0  0  0  0
    1.1736   -5.3127    2.8447 H   0  0  0  0  0  0  0  0  0  0  0  0
    0.1158   -6.2148    5.9888 H   0  0  0  0  0  0  0  0  0  0  0  0
    1.1021   -6.0380    4.5574 H   0  0  0  0  0  0  0  0  0  0  0  0
    0.4423   -4.6240    5.3438 H   0  0  0  0  0  0  0  0  0  0  0  0
   -2.1102   -7.2745    3.2607 H   0  0  0  0  0  0  0  0  0  0  0  0
   -0.3931   -7.5894    3.3338 H   0  0  0  0  0  0  0  0  0  0  0  0
   -1.3758   -7.7674    4.7676 H   0  0  0  0  0  0  0  0  0  0  0  0
   -3.0715   -5.3044    4.3943 H   0  0  0  0  0  0  0  0  0  0  0  0
   -2.5207   -6.9760    6.0934 H   0  0  0  0  0  0  0  0  0  0  0  0
   -1.4782   -5.8230    6.8914 H   0  0  0  0  0  0  0  0  0  0  0  0
    1.6715   -2.3679    5.8005 H   0  0  0  0  0  0  0  0  0  0  0  0
    2.2337   -3.3931    4.5020 H   0  0  0  0  0  0  0  0  0  0  0  0
    2.1404   -5.3593    6.0139 H   0  0  0  0  0  0  0  0  0  0  0  0
    1.5782   -4.3341    7.3124 H   0  0  0  0  0  0  0  0  0  0  0  0
    0.6575   -5.7465    6.8532 H   0  0  0  0  0  0  0  0  0  0  0  0
   -1.1936    1.0851    3.5774 H   0  0  0  0  0  0  0  0  0  0  0  0
    1.5177   -0.0395    2.8722 H   0  0  0  0  0  0  0  0  0  0  0  0
    0.7055    2.3470    2.4065 H   0  0  0  0  0  0  0  0  0  0  0  0
    1.3153    1.6278    0.9355 H   0  0  0  0  0  0  0  0  0  0  0  0
   -0.4065    1.7006    1.2238 H   0  0  0  0  0  0  0  0  0  0  0  0
  1  2  1  0  0  0  0
  1 35  1  0  0  0  0
  1 36  1  0  0  0  0
  1 37  1  0  0  0  0
  2  3  1  0  0  0  0
  2 33  1  0  0  0  0
  2 38  1  0  0  0  0
  3  4  1  0  0  0  0
  3 39  1  0  0  0  0
  3 40  1  0  0  0  0
  4  5  1  0  0  0  0
  4 41  1  0  0  0  0
  4 42  1  0  0  0  0
  5  6  1  0  0  0  0
  5  9  1  0  0  0  0
  5 32  1  0  0  0  0
  6  7  2  0  0  0  0
  6  8  1  0  0  0  0
  8 43  1  0  0  0  0
  9 10  1  0  0  0  0
  9 44  1  0  0  0  0
  9 45  1  0  0  0  0
 10 11  1  0  0  0  0
 10 46  1  0  0  0  0
 10 47  1  0  0  0  0
 11 12  1  0  0  0  0
 11 13  1  0  0  0  0
 11 30  1  0  0  0  0
 12 48  1  0  0  0  0
 12 49  1  0  0  0  0
 12 50  1  0  0  0  0
 13 14  2  0  0  0  0
 13 32  1  0  0  0  0
 14 15  1  0  0  0  0
 14 51  1  0  0  0  0
 15 16  1  0  0  0  0
 15 52  1  0  0  0  0
 15 53  1  0  0  0  0
 16 17  1  0  0  0  0
 16 30  1  0  0  0  0
 16 54  1  0  0  0  0
 17 18  1  0  0  0  0
 17 19  1  0  0  0  0
 17 27  1  0  0  0  0
 18 55  1  0  0  0  0
 18 56  1  0  0  0  0
 18 57  1  0  0  0  0
 19 20  1  0  0  0  0
 19 58  1  0  0  0  0
 19 59  1  0  0  0  0
 20 21  1  0  0  0  0
 20 22  1  0  0  0  0
 20 60  1  0  0  0  0
 21 61  1  0  0  0  0
 22 23  1  0  0  0  0
 22 24  1  0  0  0  0
 22 62  1  0  0  0  0
 23 63  1  0  0  0  0
 24 25  1  0  0  0  0
 24 26  1  0  0  0  0
 24 27  1  0  0  0  0
 25 64  1  0  0  0  0
 25 65  1  0  0  0  0
 25 66  1  0  0  0  0
 26 67  1  0  0  0  0
 26 68  1  0  0  0  0
 26 69  1  0  0  0  0
 27 28  1  0  0  0  0
 27 70  1  0  0  0  0
 28 29  1  0  0  0  0
 28 71  1  0  0  0  0
 28 72  1  0  0  0  0
 29 30  1  0  0  0  0
 29 73  1  0  0  0  0
 29 74  1  0  0  0  0
 30 31  1  0  0  0  0
 31 75  1  0  0  0  0
 31 76  1  0  0  0  0
 31 77  1  0  0  0  0
 32 33  1  0  0  0  0
 32 78  1  0  0  0  0
 33 34  1  0  0  0  0
 33 79  1  0  0  0  0
 34 80  1  0  0  0  0
 34 81  1  0  0  0  0
 34 82  1  0  0  0  0
M  END
