REMARK  Name = 
REMARK  4 active torsions:
REMARK  status: ('A' for Active; 'I' for Inactive)
REMARK    1  A    between atoms: C_1  and  N_2
REMARK    2  A    between atoms: N_2  and  C_3
REMARK    3  A    between atoms: C_3  and  C_4
REMARK    4  A    between atoms: C_4  and  O_6
REMARK                            x       y       z     vdW  Elec       q    Type
REMARK                         _______ _______ _______ _____ _____    ______ ____
ROOT
ATOM      1  C   UNL     1       0.929   0.011  -0.070  0.00  0.00    +0.000 C 
ATOM      2  N   UNL     1       0.440   0.322  -1.421  0.00  0.00    +0.000 N 
ATOM      3  C   UNL     1       0.795   1.599  -2.055  0.00  0.00    +0.000 C 
ATOM      4  N   UNL     1       1.551   2.464  -1.415  0.00  0.00    +0.000 NA
ATOM      5  N   UNL     1       0.305   1.910  -3.406  0.00  0.00    +0.000 N 
ATOM      6  H   UNL     1       1.891   2.249  -0.477  0.00  0.00    +0.000 HD
ATOM      7  H   UNL     1      -0.282   1.240  -3.903  0.00  0.00    +0.000 HD
ATOM      8  H   UNL     1       0.551   2.797  -3.846  0.00  0.00    +0.000 HD
ENDROOT
BRANCH   2   9
ATOM      9  C   UNL     1      -0.406  -0.645  -2.136  0.00  0.00    +0.000 C 
BRANCH   9  10
ATOM     10  C   UNL     1      -1.748  -0.006  -2.454  0.00  0.00    +0.000 C 
ATOM     11  O   UNL     1      -2.128   0.108  -3.661  0.00  0.00    +0.000 OA
BRANCH  10  12
ATOM     12  O   UNL     1      -2.578   0.461  -1.401  0.00  0.00    +0.000 OA
ATOM     13  H   UNL     1      -3.462   0.881  -1.609  0.00  0.00    +0.000 HD
ENDBRANCH  10  12
ENDBRANCH   9  10
ENDBRANCH   2   9
TORSDOF 3
