REMARK  Name = 
REMARK  4 active torsions:
REMARK  status: ('A' for Active; 'I' for Inactive)
REMARK    1  A    between atoms: C_1  and  N_2
REMARK    2  A    between atoms: N_2  and  C_3
REMARK    3  A    between atoms: C_3  and  C_4
REMARK    4  A    between atoms: C_4  and  O_6
REMARK                            x       y       z     vdW  Elec       q    Type
REMARK                         _______ _______ _______ _____ _____    ______ ____
ROOT
ATOM      1  C   UNL     1       0.942   0.017   0.079  0.00  0.00    +0.000 C 
ATOM      2  N   UNL     1       0.452  -0.022  -1.306  0.00  0.00    +0.000 N 
ATOM      3  C   UNL     1       0.807   1.054  -2.242  0.00  0.00    +0.000 C 
ATOM      4  N   UNL     1       1.563   2.053  -1.839  0.00  0.00    +0.000 NA
ATOM      5  N   UNL     1       0.317   1.016  -3.627  0.00  0.00    +0.000 N 
ATOM      6  H   UNL     1       1.903   2.080  -0.878  0.00  0.00    +0.000 HD
ATOM      7  H   UNL     1      -0.270   0.241  -3.939  0.00  0.00    +0.000 HD
ATOM      8  H   UNL     1       0.563   1.762  -4.276  0.00  0.00    +0.000 HD
ENDROOT
BRANCH   2   9
ATOM      9  C   UNL     1      -0.394  -1.138  -1.756  0.00  0.00    +0.000 C 
BRANCH   9  10
ATOM     10  C   UNL     1      -1.736  -0.600  -2.223  0.00  0.00    +0.000 C 
ATOM     11  O   UNL     1      -2.116  -0.792  -3.421  0.00  0.00    +0.000 OA
BRANCH  10  12
ATOM     12  O   UNL     1      -2.566   0.118  -1.322  0.00  0.00    +0.000 OA
ATOM     13  H   UNL     1      -3.450   0.471  -1.629  0.00  0.00    +0.000 HD
ENDBRANCH  10  12
ENDBRANCH   9  10
ENDBRANCH   2   9
TORSDOF 3
