
 OpenBabel03132512093D

 18 17  0  0  0  0  0  0  0  0999 V2000
    0.9415    0.0165    0.0794 C   0  0  0  0  0  0  0  0  0  0  0  0
    0.4515   -0.0224   -1.3060 N   0  0  0  0  0  0  0  0  0  0  0  0
   -0.3937   -1.1379   -1.7557 C   0  0  0  0  0  0  0  0  0  0  0  0
   -1.7362   -0.6000   -2.2231 C   0  0  0  0  0  0  0  0  0  0  0  0
   -2.1158   -0.7925   -3.4207 O   0  0  0  0  0  0  0  0  0  0  0  0
   -2.5664    0.1176   -1.3219 O   0  0  0  0  0  0  0  0  0  0  0  0
    0.8066    1.0543   -2.2417 C   0  0  0  0  0  0  0  0  0  0  0  0
    1.5630    2.0527   -1.8392 N   0  0  0  0  0  0  0  0  0  0  0  0
    0.3166    1.0155   -3.6271 N   0  0  0  0  0  0  0  0  0  0  0  0
    0.5848   -0.8426    0.6081 H   0  0  0  0  0  0  0  0  0  0  0  0
    0.5848    0.9040    0.5591 H   0  0  0  0  0  0  0  0  0  0  0  0
    2.0115    0.0165    0.0794 H   0  0  0  0  0  0  0  0  0  0  0  0
    0.0879   -1.6467   -2.5645 H   0  0  0  0  0  0  0  0  0  0  0  0
   -0.5453   -1.8198   -0.9451 H   0  0  0  0  0  0  0  0  0  0  0  0
   -3.4496    0.4715   -1.6294 H   0  0  0  0  0  0  0  0  0  0  0  0
    1.9030    2.0797   -0.8780 H   0  0  0  0  0  0  0  0  0  0  0  0
   -0.2698    0.2414   -3.9391 H   0  0  0  0  0  0  0  0  0  0  0  0
    0.5630    1.7625   -4.2764 H   0  0  0  0  0  0  0  0  0  0  0  0
  1  2  1  0  0  0  0
  1 10  1  0  0  0  0
  1 11  1  0  0  0  0
  1 12  1  0  0  0  0
  2  3  1  0  0  0  0
  2  7  1  0  0  0  0
  3  4  1  0  0  0  0
  3 13  1  0  0  0  0
  3 14  1  0  0  0  0
  4  5  2  0  0  0  0
  4  6  1  0  0  0  0
  6 15  1  0  0  0  0
  7  8  2  0  0  0  0
  7  9  1  0  0  0  0
  8 16  1  0  0  0  0
  9 17  1  0  0  0  0
  9 18  1  0  0  0  0
M  END
