
 OpenBabel03132514253D

 48 47  0  0  0  0  0  0  0  0999 V2000
    1.0769   -0.0633   -0.0086 C   0  0  0  0  0  0  0  0  0  0  0  0
    0.5703    1.3540    0.2031 C   0  0  0  0  0  0  0  0  0  0  0  0
   -0.3036    2.0141   -0.8510 C   0  0  0  0  0  0  0  0  0  0  0  0
   -0.7571    3.2826   -0.6615 C   0  0  0  0  0  0  0  0  0  0  0  0
   -1.6310    3.9427   -1.7156 C   0  0  0  0  0  0  0  0  0  0  0  0
   -2.0844    5.2112   -1.5261 C   0  0  0  0  0  0  0  0  0  0  0  0
   -2.9583    5.8713   -2.5802 C   0  0  0  0  0  0  0  0  0  0  0  0
   -1.7172    5.9685   -0.2604 C   0  0  0  0  0  0  0  0  0  0  0  0
   -0.9866    5.4166    0.6209 O   0  0  0  0  0  0  0  0  0  0  0  0
   -2.1906    7.2926   -0.0626 O   0  0  0  0  0  0  0  0  0  0  0  0
    0.8989    2.0318    1.3359 C   0  0  0  0  0  0  0  0  0  0  0  0
    1.7728    1.3717    2.3900 C   0  0  0  0  0  0  0  0  0  0  0  0
    2.1014    2.0495    3.5228 C   0  0  0  0  0  0  0  0  0  0  0  0
    2.9753    1.3894    4.5769 C   0  0  0  0  0  0  0  0  0  0  0  0
    3.3039    2.0672    5.7097 C   0  0  0  0  0  0  0  0  0  0  0  0
    4.1778    1.4071    6.7638 C   0  0  0  0  0  0  0  0  0  0  0  0
    2.7973    3.4845    5.9214 C   0  0  0  0  0  0  0  0  0  0  0  0
    2.0152    4.0753    4.9780 C   0  0  0  0  0  0  0  0  0  0  0  0
    1.5085    5.4926    5.1897 C   0  0  0  0  0  0  0  0  0  0  0  0
    0.7264    6.0834    4.2463 C   0  0  0  0  0  0  0  0  0  0  0  0
    0.2197    7.5008    4.4580 C   0  0  0  0  0  0  0  0  0  0  0  0
    0.3592    5.3261    2.9806 C   0  0  0  0  0  0  0  0  0  0  0  0
    0.7828    4.1411    2.8036 O   0  0  0  0  0  0  0  0  0  0  0  0
   -0.4572    5.9428    1.9959 O   0  0  0  0  0  0  0  0  0  0  0  0
    0.7203   -0.4331   -0.9471 H   0  0  0  0  0  0  0  0  0  0  0  0
    0.7203   -0.6912    0.7810 H   0  0  0  0  0  0  0  0  0  0  0  0
    2.1469   -0.0633   -0.0086 H   0  0  0  0  0  0  0  0  0  0  0  0
   -0.5621    1.4810   -1.7420 H   0  0  0  0  0  0  0  0  0  0  0  0
   -0.4986    3.8157    0.2295 H   0  0  0  0  0  0  0  0  0  0  0  0
   -1.8894    3.4096   -2.6066 H   0  0  0  0  0  0  0  0  0  0  0  0
   -3.9034    6.1289   -2.1497 H   0  0  0  0  0  0  0  0  0  0  0  0
   -2.4767    6.7568   -2.9392 H   0  0  0  0  0  0  0  0  0  0  0  0
   -3.1099    5.1929   -3.3936 H   0  0  0  0  0  0  0  0  0  0  0  0
   -1.9490    7.7908    0.7701 H   0  0  0  0  0  0  0  0  0  0  0  0
    0.5422    3.0295    1.4849 H   0  0  0  0  0  0  0  0  0  0  0  0
    2.1294    0.3740    2.2410 H   0  0  0  0  0  0  0  0  0  0  0  0
    1.7448    3.0472    3.6718 H   0  0  0  0  0  0  0  0  0  0  0  0
    3.3320    0.3917    4.4279 H   0  0  0  0  0  0  0  0  0  0  0  0
    5.0695    1.9828    6.8994 H   0  0  0  0  0  0  0  0  0  0  0  0
    3.6428    1.3549    7.6890 H   0  0  0  0  0  0  0  0  0  0  0  0
    4.4363    0.4189    6.4450 H   0  0  0  0  0  0  0  0  0  0  0  0
    3.0558    4.0176    6.8124 H   0  0  0  0  0  0  0  0  0  0  0  0
    1.7567    3.5422    4.0870 H   0  0  0  0  0  0  0  0  0  0  0  0
    1.7670    6.0257    6.0807 H   0  0  0  0  0  0  0  0  0  0  0  0
    0.5764    8.1287    3.6684 H   0  0  0  0  0  0  0  0  0  0  0  0
   -0.8503    7.5008    4.4580 H   0  0  0  0  0  0  0  0  0  0  0  0
    0.5764    7.8706    5.3966 H   0  0  0  0  0  0  0  0  0  0  0  0
   -0.6988    5.4446    1.1631 H   0  0  0  0  0  0  0  0  0  0  0  0
  1  2  1  0  0  0  0
  1 25  1  0  0  0  0
  1 26  1  0  0  0  0
  1 27  1  0  0  0  0
  2  3  1  0  0  0  0
  2 11  2  0  0  0  0
  3  4  2  0  0  0  0
  3 28  1  0  0  0  0
  4  5  1  0  0  0  0
  4 29  1  0  0  0  0
  5  6  2  0  0  0  0
  5 30  1  0  0  0  0
  6  7  1  0  0  0  0
  6  8  1  0  0  0  0
  7 31  1  0  0  0  0
  7 32  1  0  0  0  0
  7 33  1  0  0  0  0
  8  9  2  0  0  0  0
  8 10  1  0  0  0  0
 10 34  1  0  0  0  0
 11 12  1  0  0  0  0
 11 35  1  0  0  0  0
 12 13  2  0  0  0  0
 12 36  1  0  0  0  0
 13 14  1  0  0  0  0
 13 37  1  0  0  0  0
 14 15  2  0  0  0  0
 14 38  1  0  0  0  0
 15 16  1  0  0  0  0
 15 17  1  0  0  0  0
 16 39  1  0  0  0  0
 16 40  1  0  0  0  0
 16 41  1  0  0  0  0
 17 18  2  0  0  0  0
 17 42  1  0  0  0  0
 18 19  1  0  0  0  0
 18 43  1  0  0  0  0
 19 20  2  0  0  0  0
 19 44  1  0  0  0  0
 20 21  1  0  0  0  0
 20 22  1  0  0  0  0
 21 45  1  0  0  0  0
 21 46  1  0  0  0  0
 21 47  1  0  0  0  0
 22 23  2  0  0  0  0
 22 24  1  0  0  0  0
 24 48  1  0  0  0  0
M  END
