REMARK  Name = 
REMARK  14 active torsions:
REMARK  status: ('A' for Active; 'I' for Inactive)
REMARK    1  A    between atoms: C_1  and  C_2
REMARK    2  A    between atoms: C_2  and  C_3
REMARK    3  A    between atoms: C_4  and  C_5
REMARK    4  A    between atoms: C_6  and  C_7
REMARK    5  A    between atoms: C_6  and  C_8
REMARK    6  A    between atoms: C_8  and  O_10
REMARK    7  A    between atoms: C_11  and  C_12
REMARK    8  A    between atoms: C_13  and  C_14
REMARK    9  A    between atoms: C_15  and  C_16
REMARK   10  A    between atoms: C_15  and  C_17
REMARK   11  A    between atoms: C_18  and  C_19
REMARK   12  A    between atoms: C_20  and  C_21
REMARK   13  A    between atoms: C_20  and  C_22
REMARK   14  A    between atoms: C_22  and  O_24
REMARK                            x       y       z     vdW  Elec       q    Type
REMARK                         _______ _______ _______ _____ _____    ______ ____
ROOT
ATOM      1  C   UNL     1       1.773   1.372   2.390  0.00  0.00    +0.000 C 
ATOM      2  C   UNL     1       2.101   2.050   3.523  0.00  0.00    +0.000 C 
ENDROOT
BRANCH   1   5
ATOM      3  C   UNL     1       1.077  -0.063  -0.009  0.00  0.00    +0.000 C 
ATOM      4  C   UNL     1       0.570   1.354   0.203  0.00  0.00    +0.000 C 
ATOM      5  C   UNL     1       0.899   2.032   1.336  0.00  0.00    +0.000 C 
BRANCH   4   6
ATOM      6  C   UNL     1      -0.304   2.014  -0.851  0.00  0.00    +0.000 C 
ATOM      7  C   UNL     1      -0.757   3.283  -0.661  0.00  0.00    +0.000 C 
BRANCH   7   8
ATOM      8  C   UNL     1      -1.631   3.943  -1.716  0.00  0.00    +0.000 C 
ATOM      9  C   UNL     1      -2.084   5.211  -1.526  0.00  0.00    +0.000 C 
ATOM     10  C   UNL     1      -2.958   5.871  -2.580  0.00  0.00    +0.000 C 
BRANCH   9  11
ATOM     11  C   UNL     1      -1.717   5.968  -0.260  0.00  0.00    +0.000 C 
ATOM     12  O   UNL     1      -0.987   5.417   0.621  0.00  0.00    +0.000 OA
BRANCH  11  13
ATOM     13  O   UNL     1      -2.191   7.293  -0.063  0.00  0.00    +0.000 OA
ATOM     14  H   UNL     1      -1.949   7.791   0.770  0.00  0.00    +0.000 HD
ENDBRANCH  11  13
ENDBRANCH   9  11
ENDBRANCH   7   8
ENDBRANCH   4   6
ENDBRANCH   1   5
BRANCH   2  15
ATOM     15  C   UNL     1       2.975   1.389   4.577  0.00  0.00    +0.000 C 
ATOM     16  C   UNL     1       3.304   2.067   5.710  0.00  0.00    +0.000 C 
ATOM     17  C   UNL     1       4.178   1.407   6.764  0.00  0.00    +0.000 C 
BRANCH  16  18
ATOM     18  C   UNL     1       2.797   3.485   5.921  0.00  0.00    +0.000 C 
ATOM     19  C   UNL     1       2.015   4.075   4.978  0.00  0.00    +0.000 C 
BRANCH  19  20
ATOM     20  C   UNL     1       1.508   5.493   5.190  0.00  0.00    +0.000 C 
ATOM     21  C   UNL     1       0.726   6.083   4.246  0.00  0.00    +0.000 C 
ATOM     22  C   UNL     1       0.220   7.501   4.458  0.00  0.00    +0.000 C 
BRANCH  21  23
ATOM     23  C   UNL     1       0.359   5.326   2.981  0.00  0.00    +0.000 C 
ATOM     24  O   UNL     1       0.783   4.141   2.804  0.00  0.00    +0.000 OA
BRANCH  23  25
ATOM     25  O   UNL     1      -0.457   5.943   1.996  0.00  0.00    +0.000 OA
ATOM     26  H   UNL     1      -0.699   5.445   1.163  0.00  0.00    +0.000 HD
ENDBRANCH  23  25
ENDBRANCH  21  23
ENDBRANCH  19  20
ENDBRANCH  16  18
ENDBRANCH   2  15
TORSDOF 10
