
 OpenBabel03132512093D

 48 47  0  0  0  0  0  0  0  0999 V2000
    0.9275    0.0665   -0.0179 C   0  0  0  0  0  0  0  0  0  0  0  0
    0.4208    1.1067    0.9678 C   0  0  0  0  0  0  0  0  0  0  0  0
   -0.4530    2.2517    0.4823 C   0  0  0  0  0  0  0  0  0  0  0  0
   -0.9065    3.1827    1.3646 C   0  0  0  0  0  0  0  0  0  0  0  0
   -1.7804    4.3277    0.8791 C   0  0  0  0  0  0  0  0  0  0  0  0
   -2.2338    5.2586    1.7613 C   0  0  0  0  0  0  0  0  0  0  0  0
   -3.1077    6.4036    1.2758 C   0  0  0  0  0  0  0  0  0  0  0  0
   -1.8666    5.1538    3.2326 C   0  0  0  0  0  0  0  0  0  0  0  0
   -1.1360    4.1965    3.6385 O   0  0  0  0  0  0  0  0  0  0  0  0
   -2.3400    6.1256    4.1535 O   0  0  0  0  0  0  0  0  0  0  0  0
    0.7495    1.0129    2.2846 C   0  0  0  0  0  0  0  0  0  0  0  0
    1.6234   -0.1321    2.7701 C   0  0  0  0  0  0  0  0  0  0  0  0
    1.9520   -0.2259    4.0869 C   0  0  0  0  0  0  0  0  0  0  0  0
    2.8259   -1.3709    4.5724 C   0  0  0  0  0  0  0  0  0  0  0  0
    3.1545   -1.4647    5.8891 C   0  0  0  0  0  0  0  0  0  0  0  0
    4.0284   -2.6098    6.3746 C   0  0  0  0  0  0  0  0  0  0  0  0
    2.6479   -0.4246    6.8749 C   0  0  0  0  0  0  0  0  0  0  0  0
    1.8657    0.6002    6.4404 C   0  0  0  0  0  0  0  0  0  0  0  0
    1.3591    1.6404    7.4261 C   0  0  0  0  0  0  0  0  0  0  0  0
    0.5770    2.6652    6.9916 C   0  0  0  0  0  0  0  0  0  0  0  0
    0.0703    3.7054    7.9773 C   0  0  0  0  0  0  0  0  0  0  0  0
    0.2098    2.7700    5.5204 C   0  0  0  0  0  0  0  0  0  0  0  0
    0.6334    1.9003    4.6961 O   0  0  0  0  0  0  0  0  0  0  0  0
   -0.6066    3.8397    5.0668 O   0  0  0  0  0  0  0  0  0  0  0  0
    0.5708    0.3014   -0.9990 H   0  0  0  0  0  0  0  0  0  0  0  0
    0.5709   -0.9005    0.2693 H   0  0  0  0  0  0  0  0  0  0  0  0
    1.9975    0.0665   -0.0179 H   0  0  0  0  0  0  0  0  0  0  0  0
   -0.7115    2.3255   -0.5533 H   0  0  0  0  0  0  0  0  0  0  0  0
   -0.6480    3.1089    2.4003 H   0  0  0  0  0  0  0  0  0  0  0  0
   -2.0389    4.4015   -0.1566 H   0  0  0  0  0  0  0  0  0  0  0  0
   -4.0528    6.3680    1.7762 H   0  0  0  0  0  0  0  0  0  0  0  0
   -2.6262    7.3351    1.4891 H   0  0  0  0  0  0  0  0  0  0  0  0
   -3.2593    6.3139    0.2204 H   0  0  0  0  0  0  0  0  0  0  0  0
   -2.0984    6.0566    5.1214 H   0  0  0  0  0  0  0  0  0  0  0  0
    0.3928    1.7451    2.9785 H   0  0  0  0  0  0  0  0  0  0  0  0
    1.9800   -0.8643    2.0762 H   0  0  0  0  0  0  0  0  0  0  0  0
    1.5953    0.5063    4.7808 H   0  0  0  0  0  0  0  0  0  0  0  0
    3.1826   -2.1032    3.8785 H   0  0  0  0  0  0  0  0  0  0  0  0
    4.9201   -2.2157    6.8157 H   0  0  0  0  0  0  0  0  0  0  0  0
    3.4934   -3.1828    7.1029 H   0  0  0  0  0  0  0  0  0  0  0  0
    4.2869   -3.2368    5.5471 H   0  0  0  0  0  0  0  0  0  0  0  0
    2.9064   -0.4983    7.9106 H   0  0  0  0  0  0  0  0  0  0  0  0
    1.6073    0.6740    5.4047 H   0  0  0  0  0  0  0  0  0  0  0  0
    1.6176    1.5666    8.4618 H   0  0  0  0  0  0  0  0  0  0  0  0
    0.4269    4.6724    7.6902 H   0  0  0  0  0  0  0  0  0  0  0  0
   -0.9997    3.7054    7.9773 H   0  0  0  0  0  0  0  0  0  0  0  0
    0.4270    3.4705    8.9584 H   0  0  0  0  0  0  0  0  0  0  0  0
   -0.8482    3.9086    4.0989 H   0  0  0  0  0  0  0  0  0  0  0  0
  1  2  1  0  0  0  0
  1 25  1  0  0  0  0
  1 26  1  0  0  0  0
  1 27  1  0  0  0  0
  2  3  1  0  0  0  0
  2 11  2  0  0  0  0
  3  4  2  0  0  0  0
  3 28  1  0  0  0  0
  4  5  1  0  0  0  0
  4 29  1  0  0  0  0
  5  6  2  0  0  0  0
  5 30  1  0  0  0  0
  6  7  1  0  0  0  0
  6  8  1  0  0  0  0
  7 31  1  0  0  0  0
  7 32  1  0  0  0  0
  7 33  1  0  0  0  0
  8  9  2  0  0  0  0
  8 10  1  0  0  0  0
 10 34  1  0  0  0  0
 11 12  1  0  0  0  0
 11 35  1  0  0  0  0
 12 13  2  0  0  0  0
 12 36  1  0  0  0  0
 13 14  1  0  0  0  0
 13 37  1  0  0  0  0
 14 15  2  0  0  0  0
 14 38  1  0  0  0  0
 15 16  1  0  0  0  0
 15 17  1  0  0  0  0
 16 39  1  0  0  0  0
 16 40  1  0  0  0  0
 16 41  1  0  0  0  0
 17 18  2  0  0  0  0
 17 42  1  0  0  0  0
 18 19  1  0  0  0  0
 18 43  1  0  0  0  0
 19 20  2  0  0  0  0
 19 44  1  0  0  0  0
 20 21  1  0  0  0  0
 20 22  1  0  0  0  0
 21 45  1  0  0  0  0
 21 46  1  0  0  0  0
 21 47  1  0  0  0  0
 22 23  2  0  0  0  0
 22 24  1  0  0  0  0
 24 48  1  0  0  0  0
M  END
