REMARK  Name = 
REMARK  14 active torsions:
REMARK  status: ('A' for Active; 'I' for Inactive)
REMARK    1  A    between atoms: C_1  and  C_2
REMARK    2  A    between atoms: C_2  and  C_3
REMARK    3  A    between atoms: C_4  and  C_5
REMARK    4  A    between atoms: C_6  and  C_7
REMARK    5  A    between atoms: C_6  and  C_8
REMARK    6  A    between atoms: C_8  and  O_10
REMARK    7  A    between atoms: C_11  and  C_12
REMARK    8  A    between atoms: C_13  and  C_14
REMARK    9  A    between atoms: C_15  and  C_16
REMARK   10  A    between atoms: C_15  and  C_17
REMARK   11  A    between atoms: C_18  and  C_19
REMARK   12  A    between atoms: C_20  and  C_21
REMARK   13  A    between atoms: C_20  and  C_22
REMARK   14  A    between atoms: C_22  and  O_24
REMARK                            x       y       z     vdW  Elec       q    Type
REMARK                         _______ _______ _______ _____ _____    ______ ____
ROOT
ATOM      1  C   UNL     1       1.623  -0.132   2.770  0.00  0.00    +0.000 C 
ATOM      2  C   UNL     1       1.952  -0.226   4.087  0.00  0.00    +0.000 C 
ENDROOT
BRANCH   1   5
ATOM      3  C   UNL     1       0.927   0.067  -0.018  0.00  0.00    +0.000 C 
ATOM      4  C   UNL     1       0.421   1.107   0.968  0.00  0.00    +0.000 C 
ATOM      5  C   UNL     1       0.750   1.013   2.285  0.00  0.00    +0.000 C 
BRANCH   4   6
ATOM      6  C   UNL     1      -0.453   2.252   0.482  0.00  0.00    +0.000 C 
ATOM      7  C   UNL     1      -0.906   3.183   1.365  0.00  0.00    +0.000 C 
BRANCH   7   8
ATOM      8  C   UNL     1      -1.780   4.328   0.879  0.00  0.00    +0.000 C 
ATOM      9  C   UNL     1      -2.234   5.259   1.761  0.00  0.00    +0.000 C 
ATOM     10  C   UNL     1      -3.108   6.404   1.276  0.00  0.00    +0.000 C 
BRANCH   9  11
ATOM     11  C   UNL     1      -1.867   5.154   3.233  0.00  0.00    +0.000 C 
ATOM     12  O   UNL     1      -1.136   4.197   3.639  0.00  0.00    +0.000 OA
BRANCH  11  13
ATOM     13  O   UNL     1      -2.340   6.126   4.154  0.00  0.00    +0.000 OA
ATOM     14  H   UNL     1      -2.098   6.057   5.121  0.00  0.00    +0.000 HD
ENDBRANCH  11  13
ENDBRANCH   9  11
ENDBRANCH   7   8
ENDBRANCH   4   6
ENDBRANCH   1   5
BRANCH   2  15
ATOM     15  C   UNL     1       2.826  -1.371   4.572  0.00  0.00    +0.000 C 
ATOM     16  C   UNL     1       3.155  -1.465   5.889  0.00  0.00    +0.000 C 
ATOM     17  C   UNL     1       4.028  -2.610   6.375  0.00  0.00    +0.000 C 
BRANCH  16  18
ATOM     18  C   UNL     1       2.648  -0.425   6.875  0.00  0.00    +0.000 C 
ATOM     19  C   UNL     1       1.866   0.600   6.440  0.00  0.00    +0.000 C 
BRANCH  19  20
ATOM     20  C   UNL     1       1.359   1.640   7.426  0.00  0.00    +0.000 C 
ATOM     21  C   UNL     1       0.577   2.665   6.992  0.00  0.00    +0.000 C 
ATOM     22  C   UNL     1       0.070   3.705   7.977  0.00  0.00    +0.000 C 
BRANCH  21  23
ATOM     23  C   UNL     1       0.210   2.770   5.520  0.00  0.00    +0.000 C 
ATOM     24  O   UNL     1       0.633   1.900   4.696  0.00  0.00    +0.000 OA
BRANCH  23  25
ATOM     25  O   UNL     1      -0.607   3.840   5.067  0.00  0.00    +0.000 OA
ATOM     26  H   UNL     1      -0.848   3.909   4.099  0.00  0.00    +0.000 HD
ENDBRANCH  23  25
ENDBRANCH  21  23
ENDBRANCH  19  20
ENDBRANCH  16  18
ENDBRANCH   2  15
TORSDOF 10
