
 OpenBabel03132514253D

125130  0  0  0  0  0  0  0  0999 V2000
    1.0725    0.0604    0.0330 C   0  0  0  0  0  0  0  0  0  0  0  0
    0.3923    0.7974   -0.8862 C   0  0  0  0  0  0  0  0  0  0  0  0
   -1.1277    0.7974   -0.8862 C   0  0  0  0  0  0  0  0  0  0  0  0
   -1.6343    2.2139   -0.6689 C   0  0  0  0  0  0  0  0  0  0  0  0
   -1.1277    3.1103   -1.7870 C   0  0  0  0  0  0  0  0  0  0  0  0
   -2.0117    3.7571   -2.5937 C   0  0  0  0  0  0  0  0  0  0  0  0
   -1.5051    4.6536   -3.7118 C   0  0  0  0  0  0  0  0  0  0  0  0
   -3.5061    3.5834   -2.3770 C   0  0  0  0  0  0  0  0  0  0  0  0
    1.1523    1.6208   -1.9132 C   0  0  0  0  0  0  0  0  0  0  0  0
    1.9766    0.6868   -2.8024 C   0  0  0  0  0  0  0  0  0  0  0  0
    2.3094   -0.5913   -2.0291 C   0  0  0  0  0  0  0  0  0  0  0  0
    1.6455   -1.7882   -2.7120 C   0  0  0  0  0  0  0  0  0  0  0  0
    1.8287   -2.8258   -3.8076 C   0  0  0  0  0  0  0  0  0  0  0  0
    0.1656    2.4081   -2.7770 C   0  0  0  0  0  0  0  0  0  0  0  0
   -1.0255    2.8458   -1.9215 C   0  0  0  0  0  0  0  0  0  0  0  0
   -1.1597    1.9681   -0.8133 O   0  0  0  0  0  0  0  0  0  0  0  0
   -2.3021    2.8026   -2.7630 C   0  0  0  0  0  0  0  0  0  0  0  0
   -3.4500    2.2434   -1.9205 C   0  0  0  0  0  0  0  0  0  0  0  0
   -4.1395    1.1107   -2.6840 C   0  0  0  0  0  0  0  0  0  0  0  0
   -4.6510    2.0027   -3.8034 C   0  0  0  0  0  0  0  0  0  0  0  0
   -4.5605    0.0165   -1.7008 C   0  0  0  0  0  0  0  0  0  0  0  0
   -4.5125   -1.3236   -2.3898 C   0  0  0  0  0  0  0  0  0  0  0  0
   -5.2991   -2.1526   -1.5469 O   0  0  0  0  0  0  0  0  0  0  0  0
   -3.3505   -1.9897   -2.4809 C   0  0  0  0  0  0  0  0  0  0  0  0
   -2.5219   -1.1747   -3.2967 O   0  0  0  0  0  0  0  0  0  0  0  0
   -3.1071   -1.0436   -4.5839 C   0  0  0  0  0  0  0  0  0  0  0  0
   -3.2563   -2.4266   -5.2223 O   0  0  0  0  0  0  0  0  0  0  0  0
   -4.1393   -3.2236   -4.4300 C   0  0  0  0  0  0  0  0  0  0  0  0
   -3.5576   -3.2590   -3.0262 C   0  0  0  0  0  0  0  0  0  0  0  0
   -4.3797   -4.0632   -2.1933 O   0  0  0  0  0  0  0  0  0  0  0  0
   -5.4603   -2.6916   -4.3155 C   0  0  0  0  0  0  0  0  0  0  0  0
   -6.2583   -3.5691   -3.5347 O   0  0  0  0  0  0  0  0  0  0  0  0
   -5.4003   -1.3193   -3.6405 C   0  0  0  0  0  0  0  0  0  0  0  0
   -4.8842   -1.4563   -2.3247 O   0  0  0  0  0  0  0  0  0  0  0  0
   -4.4903   -0.3968   -4.4575 C   0  0  0  0  0  0  0  0  0  0  0  0
   -4.3741    0.8603   -3.8075 O   0  0  0  0  0  0  0  0  0  0  0  0
   -3.8194    0.6746   -2.5136 C   0  0  0  0  0  0  0  0  0  0  0  0
   -4.7248   -0.2493   -1.6956 O   0  0  0  0  0  0  0  0  0  0  0  0
   -4.7931   -1.5296   -2.3270 C   0  0  0  0  0  0  0  0  0  0  0  0
   -5.2844   -1.2933   -3.7458 C   0  0  0  0  0  0  0  0  0  0  0  0
   -5.4004   -2.5376   -4.4200 O   0  0  0  0  0  0  0  0  0  0  0  0
   -3.5334   -2.1955   -2.4326 C   0  0  0  0  0  0  0  0  0  0  0  0
   -3.7173   -3.4623   -3.0472 O   0  0  0  0  0  0  0  0  0  0  0  0
   -2.5798   -1.3504   -3.2803 C   0  0  0  0  0  0  0  0  0  0  0  0
   -3.0994   -1.2178   -4.5952 O   0  0  0  0  0  0  0  0  0  0  0  0
   -2.4332    0.0345   -2.6420 C   0  0  0  0  0  0  0  0  0  0  0  0
   -1.6016    0.8508   -3.4535 O   0  0  0  0  0  0  0  0  0  0  0  0
   -3.3799   -3.2800   -3.1448 C   0  0  0  0  0  0  0  0  0  0  0  0
   -4.6812   -3.9922   -2.8135 C   0  0  0  0  0  0  0  0  0  0  0  0
   -3.2826   -3.0791   -4.6483 C   0  0  0  0  0  0  0  0  0  0  0  0
   -2.1977   -4.1251   -2.6648 C   0  0  0  0  0  0  0  0  0  0  0  0
   -1.1822   -3.2550   -2.0993 C   0  0  0  0  0  0  0  0  0  0  0  0
    0.0946   -3.6556   -2.2093 C   0  0  0  0  0  0  0  0  0  0  0  0
    1.2029   -2.7991   -1.6530 C   0  0  0  0  0  0  0  0  0  0  0  0
    2.1641   -3.5065   -0.7117 C   0  0  0  0  0  0  0  0  0  0  0  0
    0.5375   -0.5192    0.7559 H   0  0  0  0  0  0  0  0  0  0  0  0
    2.1425    0.0604    0.0330 H   0  0  0  0  0  0  0  0  0  0  0  0
   -1.4843    0.4313   -1.8262 H   0  0  0  0  0  0  0  0  0  0  0  0
   -1.4843    0.1664   -0.0991 H   0  0  0  0  0  0  0  0  0  0  0  0
   -2.7043    2.2139   -0.6689 H   0  0  0  0  0  0  0  0  0  0  0  0
   -1.2777    2.5800    0.2711 H   0  0  0  0  0  0  0  0  0  0  0  0
   -0.0757    3.2326   -1.9395 H   0  0  0  0  0  0  0  0  0  0  0  0
   -1.8617    4.2875   -4.6518 H   0  0  0  0  0  0  0  0  0  0  0  0
   -1.8617    5.6507   -3.5588 H   0  0  0  0  0  0  0  0  0  0  0  0
   -0.4351    4.6536   -3.7118 H   0  0  0  0  0  0  0  0  0  0  0  0
   -3.7646    2.5508   -2.4858 H   0  0  0  0  0  0  0  0  0  0  0  0
   -3.7646    3.9140   -1.3928 H   0  0  0  0  0  0  0  0  0  0  0  0
   -4.0411    4.1630   -3.1000 H   0  0  0  0  0  0  0  0  0  0  0  0
    1.8030    2.3045   -1.4090 H   0  0  0  0  0  0  0  0  0  0  0  0
    1.4132    0.4379   -3.6773 H   0  0  0  0  0  0  0  0  0  0  0  0
    2.8837    1.1763   -3.0897 H   0  0  0  0  0  0  0  0  0  0  0  0
    1.9460   -0.5062   -1.0263 H   0  0  0  0  0  0  0  0  0  0  0  0
    3.3699   -0.7327   -2.0135 H   0  0  0  0  0  0  0  0  0  0  0  0
    1.9409   -2.3327   -4.7506 H   0  0  0  0  0  0  0  0  0  0  0  0
    2.7022   -3.4091   -3.6040 H   0  0  0  0  0  0  0  0  0  0  0  0
    0.9718   -3.4658   -3.8395 H   0  0  0  0  0  0  0  0  0  0  0  0
    0.0359    3.1698   -3.5172 H   0  0  0  0  0  0  0  0  0  0  0  0
   -0.8641    3.8433   -1.5695 H   0  0  0  0  0  0  0  0  0  0  0  0
   -1.3105    1.0361   -1.1427 H   0  0  0  0  0  0  0  0  0  0  0  0
   -2.5480    3.7917   -3.0888 H   0  0  0  0  0  0  0  0  0  0  0  0
   -2.1464    2.1746   -3.6152 H   0  0  0  0  0  0  0  0  0  0  0  0
   -4.0339    2.9061   -1.3165 H   0  0  0  0  0  0  0  0  0  0  0  0
   -3.8779    2.1420   -4.5299 H   0  0  0  0  0  0  0  0  0  0  0  0
   -5.4979    1.5422   -4.2676 H   0  0  0  0  0  0  0  0  0  0  0  0
   -4.9372    2.9518   -3.4006 H   0  0  0  0  0  0  0  0  0  0  0  0
   -3.8926    0.0120   -0.8648 H   0  0  0  0  0  0  0  0  0  0  0  0
   -5.5568    0.2071   -1.3602 H   0  0  0  0  0  0  0  0  0  0  0  0
   -4.8595   -1.1693   -3.3901 H   0  0  0  0  0  0  0  0  0  0  0  0
   -4.8694   -2.2156   -0.6462 H   0  0  0  0  0  0  0  0  0  0  0  0
   -2.9900   -2.1471   -1.4858 H   0  0  0  0  0  0  0  0  0  0  0  0
   -2.4784   -0.4303   -5.1951 H   0  0  0  0  0  0  0  0  0  0  0  0
   -4.2054   -4.1947   -4.8744 H   0  0  0  0  0  0  0  0  0  0  0  0
   -2.5710   -3.6720   -3.0592 H   0  0  0  0  0  0  0  0  0  0  0  0
   -3.5151   -2.2649   -2.6325 H   0  0  0  0  0  0  0  0  0  0  0  0
   -5.3017   -3.6772   -2.1624 H   0  0  0  0  0  0  0  0  0  0  0  0
   -5.8903   -2.5912   -5.2902 H   0  0  0  0  0  0  0  0  0  0  0  0
   -5.8567   -3.6630   -2.6237 H   0  0  0  0  0  0  0  0  0  0  0  0
   -6.3839   -0.9008   -3.5919 H   0  0  0  0  0  0  0  0  0  0  0  0
   -3.9648   -1.8474   -2.3663 H   0  0  0  0  0  0  0  0  0  0  0  0
   -4.9086   -0.2515   -5.4316 H   0  0  0  0  0  0  0  0  0  0  0  0
   -3.7369    1.6222   -2.0235 H   0  0  0  0  0  0  0  0  0  0  0  0
   -5.4545   -2.1498   -1.7587 H   0  0  0  0  0  0  0  0  0  0  0  0
   -6.2401   -0.8129   -3.7169 H   0  0  0  0  0  0  0  0  0  0  0  0
   -4.5873   -0.6697   -4.2655 H   0  0  0  0  0  0  0  0  0  0  0  0
   -4.5073   -2.9866   -4.4470 H   0  0  0  0  0  0  0  0  0  0  0  0
   -3.1181   -2.3303   -1.4557 H   0  0  0  0  0  0  0  0  0  0  0  0
   -4.1054   -3.3366   -3.9602 H   0  0  0  0  0  0  0  0  0  0  0  0
   -1.6228   -1.8269   -3.3255 H   0  0  0  0  0  0  0  0  0  0  0  0
   -3.9940   -0.7726   -4.5567 H   0  0  0  0  0  0  0  0  0  0  0  0
   -1.9918   -0.0626   -1.6722 H   0  0  0  0  0  0  0  0  0  0  0  0
   -2.0103    0.9444   -4.3614 H   0  0  0  0  0  0  0  0  0  0  0  0
   -5.5072   -3.4005   -3.1491 H   0  0  0  0  0  0  0  0  0  0  0  0
   -4.7018   -4.9434   -3.3031 H   0  0  0  0  0  0  0  0  0  0  0  0
   -4.7508   -4.1341   -1.7553 H   0  0  0  0  0  0  0  0  0  0  0  0
   -2.3672   -2.5771   -4.8826 H   0  0  0  0  0  0  0  0  0  0  0  0
   -3.3028   -4.0306   -5.1373 H   0  0  0  0  0  0  0  0  0  0  0  0
   -4.1093   -2.4882   -4.9835 H   0  0  0  0  0  0  0  0  0  0  0  0
   -1.9866   -5.1734   -2.7012 H   0  0  0  0  0  0  0  0  0  0  0  0
   -1.2402   -2.3525   -2.6711 H   0  0  0  0  0  0  0  0  0  0  0  0
   -1.3968   -3.1438   -1.0569 H   0  0  0  0  0  0  0  0  0  0  0  0
    0.1311   -4.5330   -1.5980 H   0  0  0  0  0  0  0  0  0  0  0  0
    0.2918   -3.7759   -3.2541 H   0  0  0  0  0  0  0  0  0  0  0  0
    2.8681   -4.0755   -1.2822 H   0  0  0  0  0  0  0  0  0  0  0  0
    2.6854   -2.7810   -0.1229 H   0  0  0  0  0  0  0  0  0  0  0  0
    1.6152   -4.1611   -0.0673 H   0  0  0  0  0  0  0  0  0  0  0  0
  1  2  2  0  0  0  0
  1 56  1  0  0  0  0
  1 57  1  0  0  0  0
  2  3  1  0  0  0  0
  2  9  1  0  0  0  0
  3  4  1  0  0  0  0
  3 58  1  0  0  0  0
  3 59  1  0  0  0  0
  4  5  1  0  0  0  0
  4 60  1  0  0  0  0
  4 61  1  0  0  0  0
  5  6  2  0  0  0  0
  5 62  1  0  0  0  0
  6  7  1  0  0  0  0
  6  8  1  0  0  0  0
  7 63  1  0  0  0  0
  7 64  1  0  0  0  0
  7 65  1  0  0  0  0
  8 66  1  0  0  0  0
  8 67  1  0  0  0  0
  8 68  1  0  0  0  0
  9 10  1  0  0  0  0
  9 14  1  0  0  0  0
  9 69  1  0  0  0  0
 10 11  1  0  0  0  0
 10 70  1  0  0  0  0
 10 71  1  0  0  0  0
 11 12  1  0  0  0  0
 11 72  1  0  0  0  0
 11 73  1  0  0  0  0
 12 13  1  0  0  0  0
 12 14  1  0  0  0  0
 12 54  1  0  0  0  0
 13 74  1  0  0  0  0
 13 75  1  0  0  0  0
 13 76  1  0  0  0  0
 14 15  1  0  0  0  0
 14 77  1  0  0  0  0
 15 16  1  0  0  0  0
 15 17  1  0  0  0  0
 15 78  1  0  0  0  0
 16 79  1  0  0  0  0
 17 18  1  0  0  0  0
 17 80  1  0  0  0  0
 17 81  1  0  0  0  0
 18 19  1  0  0  0  0
 18 54  1  0  0  0  0
 18 82  1  0  0  0  0
 19 20  1  0  0  0  0
 19 21  1  0  0  0  0
 19 51  1  0  0  0  0
 20 83  1  0  0  0  0
 20 84  1  0  0  0  0
 20 85  1  0  0  0  0
 21 22  1  0  0  0  0
 21 86  1  0  0  0  0
 21 87  1  0  0  0  0
 22 23  1  0  0  0  0
 22 24  1  0  0  0  0
 22 88  1  0  0  0  0
 23 89  1  0  0  0  0
 24 25  1  0  0  0  0
 24 48  1  0  0  0  0
 24 90  1  0  0  0  0
 25 26  1  0  0  0  0
 26 27  1  0  0  0  0
 26 35  1  0  0  0  0
 26 91  1  0  0  0  0
 27 28  1  0  0  0  0
 28 29  1  0  0  0  0
 28 31  1  0  0  0  0
 28 92  1  0  0  0  0
 29 30  1  0  0  0  0
 29 93  1  0  0  0  0
 29 94  1  0  0  0  0
 30 95  1  0  0  0  0
 31 32  1  0  0  0  0
 31 33  1  0  0  0  0
 31 96  1  0  0  0  0
 32 97  1  0  0  0  0
 33 34  1  0  0  0  0
 33 35  1  0  0  0  0
 33 98  1  0  0  0  0
 34 99  1  0  0  0  0
 35 36  1  0  0  0  0
 35100  1  0  0  0  0
 36 37  1  0  0  0  0
 37 38  1  0  0  0  0
 37 46  1  0  0  0  0
 37101  1  0  0  0  0
 38 39  1  0  0  0  0
 39 40  1  0  0  0  0
 39 42  1  0  0  0  0
 39102  1  0  0  0  0
 40 41  1  0  0  0  0
 40103  1  0  0  0  0
 40104  1  0  0  0  0
 41105  1  0  0  0  0
 42 43  1  0  0  0  0
 42 44  1  0  0  0  0
 42106  1  0  0  0  0
 43107  1  0  0  0  0
 44 45  1  0  0  0  0
 44 46  1  0  0  0  0
 44108  1  0  0  0  0
 45109  1  0  0  0  0
 46 47  1  0  0  0  0
 46110  1  0  0  0  0
 47111  1  0  0  0  0
 48 49  1  0  0  0  0
 48 50  1  0  0  0  0
 48 51  1  0  0  0  0
 49112  1  0  0  0  0
 49113  1  0  0  0  0
 49114  1  0  0  0  0
 50115  1  0  0  0  0
 50116  1  0  0  0  0
 50117  1  0  0  0  0
 51 52  1  0  0  0  0
 51118  1  0  0  0  0
 52 53  1  0  0  0  0
 52119  1  0  0  0  0
 52120  1  0  0  0  0
 53 54  1  0  0  0  0
 53121  1  0  0  0  0
 53122  1  0  0  0  0
 54 55  1  0  0  0  0
 55123  1  0  0  0  0
 55124  1  0  0  0  0
 55125  1  0  0  0  0
M  END
