REMARK  Name = 
REMARK  26 active torsions:
REMARK  status: ('A' for Active; 'I' for Inactive)
REMARK    1  A    between atoms: C_1  and  C_2
REMARK    2  A    between atoms: C_2  and  C_3
REMARK    3  A    between atoms: C_4  and  C_5
REMARK    4  A    between atoms: C_5  and  C_6
REMARK    5  A    between atoms: C_7  and  C_8
REMARK    6  A    between atoms: C_7  and  C_9
REMARK    7  A    between atoms: C_12  and  C_13
REMARK    8  A    between atoms: C_15  and  O_16
REMARK    9  A    between atoms: C_19  and  C_20
REMARK   10  A    between atoms: C_22  and  O_23
REMARK   11  A    between atoms: C_24  and  O_25
REMARK   12  A    between atoms: O_25  and  C_26
REMARK   13  A    between atoms: C_28  and  C_29
REMARK   14  A    between atoms: C_29  and  O_30
REMARK   15  A    between atoms: C_31  and  O_32
REMARK   16  A    between atoms: C_33  and  O_34
REMARK   17  A    between atoms: C_35  and  O_36
REMARK   18  A    between atoms: O_36  and  C_37
REMARK   19  A    between atoms: C_39  and  C_40
REMARK   20  A    between atoms: C_40  and  O_41
REMARK   21  A    between atoms: C_42  and  O_43
REMARK   22  A    between atoms: C_44  and  O_45
REMARK   23  A    between atoms: C_46  and  O_47
REMARK   24  A    between atoms: C_48  and  C_49
REMARK   25  A    between atoms: C_48  and  C_50
REMARK   26  A    between atoms: C_54  and  C_55
REMARK                            x       y       z     vdW  Elec       q    Type
REMARK                         _______ _______ _______ _____ _____    ______ ____
ROOT
ATOM      1  C   UNL     1       2.404   5.406  -1.493  0.00  0.00    +0.000 C 
ATOM      2  C   UNL     1       1.663   5.865  -2.752  0.00  0.00    +0.000 C 
ATOM      3  C   UNL     1       2.621   5.837  -3.945  0.00  0.00    +0.000 C 
ATOM      4  C   UNL     1       2.132   4.809  -4.967  0.00  0.00    +0.000 C 
ATOM      5  C   UNL     1       1.206   4.616  -6.157  0.00  0.00    +0.000 C 
ATOM      6  C   UNL     1       1.435   4.660  -0.575  0.00  0.00    +0.000 C 
ATOM      7  C   UNL     1       2.219   3.701   0.324  0.00  0.00    +0.000 C 
ATOM      8  C   UNL     1       1.400   2.429   0.552  0.00  0.00    +0.000 C 
ATOM      9  C   UNL     1       2.323   1.211   0.497  0.00  0.00    +0.000 C 
ATOM     10  C   UNL     1       1.744   0.174  -0.469  0.00  0.00    +0.000 C 
ATOM     11  C   UNL     1       0.504  -0.101   0.366  0.00  0.00    +0.000 C 
ATOM     12  C   UNL     1       2.885  -0.506  -1.229  0.00  0.00    +0.000 C 
ATOM     13  C   UNL     1       2.408  -0.899  -2.604  0.00  0.00    +0.000 C 
ATOM     14  C   UNL     1       2.414   0.003  -3.599  0.00  0.00    +0.000 C 
ATOM     15  C   UNL     1       1.954  -0.447  -4.900  0.00  0.00    +0.000 C 
ATOM     16  C   UNL     1       2.397  -1.884  -5.126  0.00  0.00    +0.000 C 
ATOM     17  C   UNL     1       0.438  -0.371  -4.957  0.00  0.00    +0.000 C 
ATOM     18  C   UNL     1       2.552   0.449  -5.988  0.00  0.00    +0.000 C 
ATOM     19  C   UNL     1       2.974   1.706  -5.397  0.00  0.00    +0.000 C 
ATOM     20  C   UNL     1       2.920   2.796  -6.180  0.00  0.00    +0.000 C 
ATOM     21  C   UNL     1       3.334   4.138  -5.632  0.00  0.00    +0.000 C 
ATOM     22  C   UNL     1       4.368   4.888  -6.456  0.00  0.00    +0.000 C 
ENDROOT
BRANCH   1  24
ATOM     23  C   UNL     1       3.058   3.006  -1.694  0.00  0.00    +0.000 C 
ATOM     24  C   UNL     1       3.347   4.309  -1.958  0.00  0.00    +0.000 C 
ATOM     25  C   UNL     1       4.614   4.668  -2.718  0.00  0.00    +0.000 C 
BRANCH  23  26
ATOM     26  C   UNL     1       1.792   2.648  -0.934  0.00  0.00    +0.000 C 
BRANCH  26  30
ATOM     27  C   UNL     1       1.096   0.003  -0.029  0.00  0.00    +0.000 C 
ATOM     28  C   UNL     1       0.589   0.505  -1.371  0.00  0.00    +0.000 C 
ATOM     29  C   UNL     1      -0.285  -0.389  -2.236  0.00  0.00    +0.000 C 
ATOM     30  C   UNL     1       0.918   1.754  -1.799  0.00  0.00    +0.000 C 
ENDBRANCH  26  30
ENDBRANCH  23  26
ENDBRANCH   1  24
BRANCH  13  31
ATOM     31  O   UNL     1       3.371  -1.854  -3.023  0.00  0.00    +0.000 OA
ATOM     32  H   UNL     1       4.269  -1.418  -3.084  0.00  0.00    +0.000 HD
ENDBRANCH  13  31
BRANCH   7  33
ATOM     33  O   UNL     1       3.449   3.365  -0.302  0.00  0.00    +0.000 OA
ATOM     34  H   UNL     1       3.266   2.924  -1.181  0.00  0.00    +0.000 HD
ENDBRANCH   7  33
BRANCH  14  35
ATOM     35  O   UNL     1       1.480   0.996  -3.202  0.00  0.00    +0.000 OA
BRANCH  35  36
ATOM     36  C   UNL     1       0.190   0.412  -3.085  0.00  0.00    +0.000 C 
ATOM     37  O   UNL     1       0.217  -0.238  -4.470  0.00  0.00    +0.000 OA
ATOM     38  C   UNL     1       1.446  -0.947  -4.639  0.00  0.00    +0.000 C 
ATOM     39  C   UNL     1       1.643  -2.004  -3.698  0.00  0.00    +0.000 C 
ATOM     40  C   UNL     1       1.674  -1.425  -2.281  0.00  0.00    +0.000 C 
ATOM     41  C   UNL     1       0.366  -0.673  -2.018  0.00  0.00    +0.000 C 
BRANCH  40  42
ATOM     42  O   UNL     1       2.772  -0.535  -2.153  0.00  0.00    +0.000 OA
ATOM     43  H   UNL     1       2.677   0.209  -2.814  0.00  0.00    +0.000 HD
ENDBRANCH  40  42
BRANCH  39  44
ATOM     44  O   UNL     1       2.874  -2.657  -3.970  0.00  0.00    +0.000 OA
ATOM     45  H   UNL     1       3.624  -2.000  -3.895  0.00  0.00    +0.000 HD
ENDBRANCH  39  44
BRANCH  41  46
ATOM     46  O   UNL     1       0.408  -0.076  -0.730  0.00  0.00    +0.000 OA
BRANCH  46  47
ATOM     47  C   UNL     1       1.497   0.833  -0.664  0.00  0.00    +0.000 C 
ATOM     48  O   UNL     1       2.067  -0.420  -1.335  0.00  0.00    +0.000 OA
ATOM     49  C   UNL     1       1.220  -0.804  -2.421  0.00  0.00    +0.000 C 
ATOM     50  C   UNL     1       1.105   0.183  -3.448  0.00  0.00    +0.000 C 
ATOM     51  C   UNL     1       0.497   1.459  -2.863  0.00  0.00    +0.000 C 
ATOM     52  C   UNL     1       1.375   1.949  -1.706  0.00  0.00    +0.000 C 
BRANCH  52  53
ATOM     53  O   UNL     1       0.788   3.097  -1.112  0.00  0.00    +0.000 OA
ATOM     54  H   UNL     1      -0.121   2.865  -0.765  0.00  0.00    +0.000 HD
ENDBRANCH  52  53
BRANCH  51  55
ATOM     55  O   UNL     1      -0.813   1.190  -2.387  0.00  0.00    +0.000 OA
ATOM     56  H   UNL     1      -0.772   0.485  -1.678  0.00  0.00    +0.000 HD
ENDBRANCH  51  55
BRANCH  50  57
ATOM     57  O   UNL     1       0.269  -0.308  -4.485  0.00  0.00    +0.000 OA
ATOM     58  H   UNL     1      -0.638  -0.510  -4.114  0.00  0.00    +0.000 HD
ENDBRANCH  50  57
BRANCH  49  59
ATOM     59  C   UNL     1      -0.172  -1.000  -1.844  0.00  0.00    +0.000 C 
BRANCH  59  60
ATOM     60  O   UNL     1      -1.058  -1.412  -2.874  0.00  0.00    +0.000 OA
ATOM     61  H   UNL     1      -1.088  -0.712  -3.587  0.00  0.00    +0.000 HD
ENDBRANCH  59  60
ENDBRANCH  49  59
ENDBRANCH  46  47
ENDBRANCH  41  46
BRANCH  38  62
ATOM     62  C   UNL     1       2.566   0.055  -4.414  0.00  0.00    +0.000 C 
BRANCH  62  63
ATOM     63  O   UNL     1       3.819  -0.587  -4.596  0.00  0.00    +0.000 OA
ATOM     64  H   UNL     1       3.908  -1.337  -3.942  0.00  0.00    +0.000 HD
ENDBRANCH  62  63
ENDBRANCH  38  62
ENDBRANCH  35  36
ENDBRANCH  14  35
TORSDOF 18
