
 OpenBabel03132512093D

125130  0  0  0  0  0  0  0  0999 V2000
    1.0305   -0.0623    0.0721 C   0  0  0  0  0  0  0  0  0  0  0  0
    0.3503   -1.1634    0.4909 C   0  0  0  0  0  0  0  0  0  0  0  0
   -1.1697   -1.1634    0.4909 C   0  0  0  0  0  0  0  0  0  0  0  0
   -1.6764   -2.2744   -0.4143 C   0  0  0  0  0  0  0  0  0  0  0  0
   -1.1697   -3.6138    0.0952 C   0  0  0  0  0  0  0  0  0  0  0  0
   -2.0537   -4.5803    0.4628 C   0  0  0  0  0  0  0  0  0  0  0  0
   -1.5471   -5.9197    0.9723 C   0  0  0  0  0  0  0  0  0  0  0  0
   -3.5482   -4.3207    0.3641 C   0  0  0  0  0  0  0  0  0  0  0  0
    1.1103   -2.3938    0.9589 C   0  0  0  0  0  0  0  0  0  0  0  0
    2.0586   -2.6563   -0.2134 C   0  0  0  0  0  0  0  0  0  0  0  0
    1.3414   -2.3453   -1.5291 C   0  0  0  0  0  0  0  0  0  0  0  0
    2.0416   -1.1790   -2.2285 C   0  0  0  0  0  0  0  0  0  0  0  0
    3.1777   -0.8267   -3.1748 C   0  0  0  0  0  0  0  0  0  0  0  0
    1.9124   -1.8944    2.1618 C   0  0  0  0  0  0  0  0  0  0  0  0
    1.0020   -1.0715    3.0763 C   0  0  0  0  0  0  0  0  0  0  0  0
   -0.0794   -0.5476    2.3197 O   0  0  0  0  0  0  0  0  0  0  0  0
    1.8002    0.0805    3.6890 C   0  0  0  0  0  0  0  0  0  0  0  0
    0.9385    1.3443    3.7095 C   0  0  0  0  0  0  0  0  0  0  0  0
    1.7162    2.5033    3.0823 C   0  0  0  0  0  0  0  0  0  0  0  0
    2.7863    2.5391    4.1613 C   0  0  0  0  0  0  0  0  0  0  0  0
    0.7572    3.3844    2.2792 C   0  0  0  0  0  0  0  0  0  0  0  0
    1.4928    3.9950    1.1135 C   0  0  0  0  0  0  0  0  0  0  0  0
    0.6524    5.0714    0.7244 O   0  0  0  0  0  0  0  0  0  0  0  0
    1.6465    3.2968   -0.0228 C   0  0  0  0  0  0  0  0  0  0  0  0
    2.4619    2.1899    0.3327 O   0  0  0  0  0  0  0  0  0  0  0  0
    3.7230    2.6578    0.7877 C   0  0  0  0  0  0  0  0  0  0  0  0
    4.2543    3.5250   -0.3560 O   0  0  0  0  0  0  0  0  0  0  0  0
    3.3045    4.5496   -0.6572 C   0  0  0  0  0  0  0  0  0  0  0  0
    1.9934    3.8511   -0.9792 C   0  0  0  0  0  0  0  0  0  0  0  0
    1.0112    4.8199   -1.3157 O   0  0  0  0  0  0  0  0  0  0  0  0
    3.0417    5.4387    0.4298 C   0  0  0  0  0  0  0  0  0  0  0  0
    2.1101    6.4281    0.0179 O   0  0  0  0  0  0  0  0  0  0  0  0
    2.4613    4.6489    1.6053 C   0  0  0  0  0  0  0  0  0  0  0  0
    1.2225    4.0680    1.2254 O   0  0  0  0  0  0  0  0  0  0  0  0
    3.4466    3.5462    2.0051 C   0  0  0  0  0  0  0  0  0  0  0  0
    2.8920    2.7645    3.0528 O   0  0  0  0  0  0  0  0  0  0  0  0
    1.6773    2.1757    2.6121 C   0  0  0  0  0  0  0  0  0  0  0  0
    0.5092    3.1291    2.3490 O   0  0  0  0  0  0  0  0  0  0  0  0
    0.7661    3.8797    1.1602 C   0  0  0  0  0  0  0  0  0  0  0  0
    2.0960    4.5862    1.3665 C   0  0  0  0  0  0  0  0  0  0  0  0
    2.3950    5.3750    0.2242 O   0  0  0  0  0  0  0  0  0  0  0  0
    0.9021    3.0802   -0.0160 C   0  0  0  0  0  0  0  0  0  0  0  0
    1.1274    3.9218   -1.1373 O   0  0  0  0  0  0  0  0  0  0  0  0
    2.0861    2.1248    0.1513 C   0  0  0  0  0  0  0  0  0  0  0  0
    3.2854    2.8712    0.2962 O   0  0  0  0  0  0  0  0  0  0  0  0
    1.8627    1.2613    1.3967 C   0  0  0  0  0  0  0  0  0  0  0  0
    2.9844    0.4148    1.6005 O   0  0  0  0  0  0  0  0  0  0  0  0
    2.3527    3.9510   -1.1088 C   0  0  0  0  0  0  0  0  0  0  0  0
    2.0016    5.4298   -1.1252 C   0  0  0  0  0  0  0  0  0  0  0  0
    3.8509    3.7898   -0.9095 C   0  0  0  0  0  0  0  0  0  0  0  0
    1.9427    3.3132   -2.4382 C   0  0  0  0  0  0  0  0  0  0  0  0
    1.3829    1.9971   -2.1883 C   0  0  0  0  0  0  0  0  0  0  0  0
    1.5503    1.0708   -3.1459 C   0  0  0  0  0  0  0  0  0  0  0  0
    1.0033   -0.3200   -2.9518 C   0  0  0  0  0  0  0  0  0  0  0  0
    0.1202   -0.8363   -4.0761 C   0  0  0  0  0  0  0  0  0  0  0  0
    0.4955    0.8038   -0.2574 H   0  0  0  0  0  0  0  0  0  0  0  0
    2.1005   -0.0623    0.0721 H   0  0  0  0  0  0  0  0  0  0  0  0
   -1.5264   -1.3243    1.4868 H   0  0  0  0  0  0  0  0  0  0  0  0
   -1.5264   -0.2205    0.1323 H   0  0  0  0  0  0  0  0  0  0  0  0
   -2.7464   -2.2744   -0.4143 H   0  0  0  0  0  0  0  0  0  0  0  0
   -1.3197   -2.1136   -1.4102 H   0  0  0  0  0  0  0  0  0  0  0  0
   -0.1177   -3.7966    0.1647 H   0  0  0  0  0  0  0  0  0  0  0  0
   -1.9038   -6.0806    1.9682 H   0  0  0  0  0  0  0  0  0  0  0  0
   -1.9038   -6.7018    0.3351 H   0  0  0  0  0  0  0  0  0  0  0  0
   -0.4771   -5.9197    0.9723 H   0  0  0  0  0  0  0  0  0  0  0  0
   -3.8066   -3.4856    0.9811 H   0  0  0  0  0  0  0  0  0  0  0  0
   -3.8066   -4.1069   -0.6520 H   0  0  0  0  0  0  0  0  0  0  0  0
   -4.0832   -5.1868    0.6935 H   0  0  0  0  0  0  0  0  0  0  0  0
    0.5336   -3.2575    1.2163 H   0  0  0  0  0  0  0  0  0  0  0  0
    2.9217   -2.0307   -0.1210 H   0  0  0  0  0  0  0  0  0  0  0  0
    2.3599   -3.6830   -0.2054 H   0  0  0  0  0  0  0  0  0  0  0  0
    0.3244   -2.0810   -1.3269 H   0  0  0  0  0  0  0  0  0  0  0  0
    1.3670   -3.2078   -2.1618 H   0  0  0  0  0  0  0  0  0  0  0  0
    4.1066   -1.1489   -2.7526 H   0  0  0  0  0  0  0  0  0  0  0  0
    3.0242   -1.3157   -4.1141 H   0  0  0  0  0  0  0  0  0  0  0  0
    3.2021    0.2326   -3.3240 H   0  0  0  0  0  0  0  0  0  0  0  0
    2.6211   -2.1362    2.9260 H   0  0  0  0  0  0  0  0  0  0  0  0
    0.6218   -1.6966    3.8570 H   0  0  0  0  0  0  0  0  0  0  0  0
    0.2762    0.0366    1.5902 H   0  0  0  0  0  0  0  0  0  0  0  0
    2.0834   -0.1741    4.6890 H   0  0  0  0  0  0  0  0  0  0  0  0
    2.6782    0.2571    3.1035 H   0  0  0  0  0  0  0  0  0  0  0  0
    0.2926    1.5302    4.5421 H   0  0  0  0  0  0  0  0  0  0  0  0
    3.5337    1.8040    3.9469 H   0  0  0  0  0  0  0  0  0  0  0  0
    3.2367    3.5094    4.1849 H   0  0  0  0  0  0  0  0  0  0  0  0
    2.3417    2.3290    5.1116 H   0  0  0  0  0  0  0  0  0  0  0  0
   -0.0548    2.7894    1.9165 H   0  0  0  0  0  0  0  0  0  0  0  0
    0.3764    4.1622    2.9076 H   0  0  0  0  0  0  0  0  0  0  0  0
    2.4748    4.2390    1.4614 H   0  0  0  0  0  0  0  0  0  0  0  0
   -0.2304    4.7124    0.4216 H   0  0  0  0  0  0  0  0  0  0  0  0
    0.6703    3.0425   -0.3796 H   0  0  0  0  0  0  0  0  0  0  0  0
    4.4100    1.8798    1.0478 H   0  0  0  0  0  0  0  0  0  0  0  0
    3.6790    5.1242   -1.4784 H   0  0  0  0  0  0  0  0  0  0  0  0
    2.1368    3.1867   -1.8056 H   0  0  0  0  0  0  0  0  0  0  0  0
    1.6672    3.2939   -0.1260 H   0  0  0  0  0  0  0  0  0  0  0  0
    0.8772    5.4409   -0.5435 H   0  0  0  0  0  0  0  0  0  0  0  0
    3.9528    5.9112    0.7326 H   0  0  0  0  0  0  0  0  0  0  0  0
    1.2585    5.9868   -0.2651 H   0  0  0  0  0  0  0  0  0  0  0  0
    2.3033    5.3059    2.4350 H   0  0  0  0  0  0  0  0  0  0  0  0
    1.3666    3.4532    0.4500 H   0  0  0  0  0  0  0  0  0  0  0  0
    4.3613    3.9874    2.3421 H   0  0  0  0  0  0  0  0  0  0  0  0
    1.3981    1.5989    3.4689 H   0  0  0  0  0  0  0  0  0  0  0  0
   -0.0452    4.5613    1.0113 H   0  0  0  0  0  0  0  0  0  0  0  0
    2.0350    5.2164    2.2291 H   0  0  0  0  0  0  0  0  0  0  0  0
    2.8677    3.8591    1.5098 H   0  0  0  0  0  0  0  0  0  0  0  0
    2.4519    4.7861   -0.5820 H   0  0  0  0  0  0  0  0  0  0  0  0
    0.0065    2.5150   -0.1689 H   0  0  0  0  0  0  0  0  0  0  0  0
    1.9644    4.4501   -0.9948 H   0  0  0  0  0  0  0  0  0  0  0  0
    2.1637    1.4963   -0.7111 H   0  0  0  0  0  0  0  0  0  0  0  0
    3.2163    3.4600    1.1016 H   0  0  0  0  0  0  0  0  0  0  0  0
    0.9879    0.6597    1.2638 H   0  0  0  0  0  0  0  0  0  0  0  0
    3.8048    0.9728    1.7253 H   0  0  0  0  0  0  0  0  0  0  0  0
    2.2882    5.8748   -0.1953 H   0  0  0  0  0  0  0  0  0  0  0  0
    2.5224    5.9112   -1.9265 H   0  0  0  0  0  0  0  0  0  0  0  0
    0.9471    5.5445   -1.2655 H   0  0  0  0  0  0  0  0  0  0  0  0
    4.0991    2.7490   -0.8971 H   0  0  0  0  0  0  0  0  0  0  0  0
    4.3712    4.2709   -1.7112 H   0  0  0  0  0  0  0  0  0  0  0  0
    4.1372    4.2358    0.0200 H   0  0  0  0  0  0  0  0  0  0  0  0
    2.0222    3.6317   -3.4566 H   0  0  0  0  0  0  0  0  0  0  0  0
    1.9212    1.6225   -1.3428 H   0  0  0  0  0  0  0  0  0  0  0  0
    0.3306    2.1176   -2.0364 H   0  0  0  0  0  0  0  0  0  0  0  0
    0.9710    1.4518   -3.9609 H   0  0  0  0  0  0  0  0  0  0  0  0
    2.6047    0.9699   -3.2973 H   0  0  0  0  0  0  0  0  0  0  0  0
    0.7336   -1.1730   -4.8855 H   0  0  0  0  0  0  0  0  0  0  0  0
   -0.4749   -1.6500   -3.7172 H   0  0  0  0  0  0  0  0  0  0  0  0
   -0.5198   -0.0495   -4.4169 H   0  0  0  0  0  0  0  0  0  0  0  0
  1  2  2  0  0  0  0
  1 56  1  0  0  0  0
  1 57  1  0  0  0  0
  2  3  1  0  0  0  0
  2  9  1  0  0  0  0
  3  4  1  0  0  0  0
  3 58  1  0  0  0  0
  3 59  1  0  0  0  0
  4  5  1  0  0  0  0
  4 60  1  0  0  0  0
  4 61  1  0  0  0  0
  5  6  2  0  0  0  0
  5 62  1  0  0  0  0
  6  7  1  0  0  0  0
  6  8  1  0  0  0  0
  7 63  1  0  0  0  0
  7 64  1  0  0  0  0
  7 65  1  0  0  0  0
  8 66  1  0  0  0  0
  8 67  1  0  0  0  0
  8 68  1  0  0  0  0
  9 10  1  0  0  0  0
  9 14  1  0  0  0  0
  9 69  1  0  0  0  0
 10 11  1  0  0  0  0
 10 70  1  0  0  0  0
 10 71  1  0  0  0  0
 11 12  1  0  0  0  0
 11 72  1  0  0  0  0
 11 73  1  0  0  0  0
 12 13  1  0  0  0  0
 12 14  1  0  0  0  0
 12 54  1  0  0  0  0
 13 74  1  0  0  0  0
 13 75  1  0  0  0  0
 13 76  1  0  0  0  0
 14 15  1  0  0  0  0
 14 77  1  0  0  0  0
 15 16  1  0  0  0  0
 15 17  1  0  0  0  0
 15 78  1  0  0  0  0
 16 79  1  0  0  0  0
 17 18  1  0  0  0  0
 17 80  1  0  0  0  0
 17 81  1  0  0  0  0
 18 19  1  0  0  0  0
 18 54  1  0  0  0  0
 18 82  1  0  0  0  0
 19 20  1  0  0  0  0
 19 21  1  0  0  0  0
 19 51  1  0  0  0  0
 20 83  1  0  0  0  0
 20 84  1  0  0  0  0
 20 85  1  0  0  0  0
 21 22  1  0  0  0  0
 21 86  1  0  0  0  0
 21 87  1  0  0  0  0
 22 23  1  0  0  0  0
 22 24  1  0  0  0  0
 22 88  1  0  0  0  0
 23 89  1  0  0  0  0
 24 25  1  0  0  0  0
 24 48  1  0  0  0  0
 24 90  1  0  0  0  0
 25 26  1  0  0  0  0
 26 27  1  0  0  0  0
 26 35  1  0  0  0  0
 26 91  1  0  0  0  0
 27 28  1  0  0  0  0
 28 29  1  0  0  0  0
 28 31  1  0  0  0  0
 28 92  1  0  0  0  0
 29 30  1  0  0  0  0
 29 93  1  0  0  0  0
 29 94  1  0  0  0  0
 30 95  1  0  0  0  0
 31 32  1  0  0  0  0
 31 33  1  0  0  0  0
 31 96  1  0  0  0  0
 32 97  1  0  0  0  0
 33 34  1  0  0  0  0
 33 35  1  0  0  0  0
 33 98  1  0  0  0  0
 34 99  1  0  0  0  0
 35 36  1  0  0  0  0
 35100  1  0  0  0  0
 36 37  1  0  0  0  0
 37 38  1  0  0  0  0
 37 46  1  0  0  0  0
 37101  1  0  0  0  0
 38 39  1  0  0  0  0
 39 40  1  0  0  0  0
 39 42  1  0  0  0  0
 39102  1  0  0  0  0
 40 41  1  0  0  0  0
 40103  1  0  0  0  0
 40104  1  0  0  0  0
 41105  1  0  0  0  0
 42 43  1  0  0  0  0
 42 44  1  0  0  0  0
 42106  1  0  0  0  0
 43107  1  0  0  0  0
 44 45  1  0  0  0  0
 44 46  1  0  0  0  0
 44108  1  0  0  0  0
 45109  1  0  0  0  0
 46 47  1  0  0  0  0
 46110  1  0  0  0  0
 47111  1  0  0  0  0
 48 49  1  0  0  0  0
 48 50  1  0  0  0  0
 48 51  1  0  0  0  0
 49112  1  0  0  0  0
 49113  1  0  0  0  0
 49114  1  0  0  0  0
 50115  1  0  0  0  0
 50116  1  0  0  0  0
 50117  1  0  0  0  0
 51 52  1  0  0  0  0
 51118  1  0  0  0  0
 52 53  1  0  0  0  0
 52119  1  0  0  0  0
 52120  1  0  0  0  0
 53 54  1  0  0  0  0
 53121  1  0  0  0  0
 53122  1  0  0  0  0
 54 55  1  0  0  0  0
 55123  1  0  0  0  0
 55124  1  0  0  0  0
 55125  1  0  0  0  0
M  END
