REMARK  Name = 
REMARK  26 active torsions:
REMARK  status: ('A' for Active; 'I' for Inactive)
REMARK    1  A    between atoms: C_1  and  C_2
REMARK    2  A    between atoms: C_2  and  C_3
REMARK    3  A    between atoms: C_4  and  C_5
REMARK    4  A    between atoms: C_5  and  C_6
REMARK    5  A    between atoms: C_7  and  C_8
REMARK    6  A    between atoms: C_7  and  C_9
REMARK    7  A    between atoms: C_12  and  C_13
REMARK    8  A    between atoms: C_15  and  O_16
REMARK    9  A    between atoms: C_19  and  C_20
REMARK   10  A    between atoms: C_22  and  O_23
REMARK   11  A    between atoms: C_24  and  O_25
REMARK   12  A    between atoms: O_25  and  C_26
REMARK   13  A    between atoms: C_28  and  C_29
REMARK   14  A    between atoms: C_29  and  O_30
REMARK   15  A    between atoms: C_31  and  O_32
REMARK   16  A    between atoms: C_33  and  O_34
REMARK   17  A    between atoms: C_35  and  O_36
REMARK   18  A    between atoms: O_36  and  C_37
REMARK   19  A    between atoms: C_39  and  C_40
REMARK   20  A    between atoms: C_40  and  O_41
REMARK   21  A    between atoms: C_42  and  O_43
REMARK   22  A    between atoms: C_44  and  O_45
REMARK   23  A    between atoms: C_46  and  O_47
REMARK   24  A    between atoms: C_48  and  C_49
REMARK   25  A    between atoms: C_48  and  C_50
REMARK   26  A    between atoms: C_54  and  C_55
REMARK                            x       y       z     vdW  Elec       q    Type
REMARK                         _______ _______ _______ _____ _____    ______ ____
ROOT
ATOM      1  C   UNL     1       2.392  -5.374   1.668  0.00  0.00    +0.000 C 
ATOM      2  C   UNL     1       1.207  -4.540   1.173  0.00  0.00    +0.000 C 
ATOM      3  C   UNL     1       1.271  -3.144   1.796  0.00  0.00    +0.000 C 
ATOM      4  C   UNL     1       1.470  -2.102   0.693  0.00  0.00    +0.000 C 
ATOM      5  C   UNL     1       0.734  -1.233  -0.313  0.00  0.00    +0.000 C 
ATOM      6  C   UNL     1       2.834  -6.336   0.564  0.00  0.00    +0.000 C 
ATOM      7  C   UNL     1       4.306  -6.705   0.769  0.00  0.00    +0.000 C 
ATOM      8  C   UNL     1       4.987  -6.861  -0.592  0.00  0.00    +0.000 C 
ATOM      9  C   UNL     1       6.386  -6.246  -0.535  0.00  0.00    +0.000 C 
ATOM     10  C   UNL     1       6.569  -5.281  -1.709  0.00  0.00    +0.000 C 
ATOM     11  C   UNL     1       6.475  -6.359  -2.776  0.00  0.00    +0.000 C 
ATOM     12  C   UNL     1       7.395  -4.076  -1.254  0.00  0.00    +0.000 C 
ATOM     13  C   UNL     1       6.971  -2.855  -2.029  0.00  0.00    +0.000 C 
ATOM     14  C   UNL     1       5.902  -2.147  -1.633  0.00  0.00    +0.000 C 
ATOM     15  C   UNL     1       5.559  -0.975  -2.418  0.00  0.00    +0.000 C 
ATOM     16  C   UNL     1       6.831  -0.294  -2.897  0.00  0.00    +0.000 C 
ATOM     17  C   UNL     1       4.727  -1.395  -3.619  0.00  0.00    +0.000 C 
ATOM     18  C   UNL     1       4.753  -0.003  -1.553  0.00  0.00    +0.000 C 
ATOM     19  C   UNL     1       4.182  -0.720  -0.427  0.00  0.00    +0.000 C 
ATOM     20  C   UNL     1       3.012  -0.270   0.053  0.00  0.00    +0.000 C 
ATOM     21  C   UNL     1       2.356  -0.970   1.215  0.00  0.00    +0.000 C 
ATOM     22  C   UNL     1       1.976  -0.076   2.384  0.00  0.00    +0.000 C 
ENDROOT
BRANCH   1  24
ATOM     23  C   UNL     1       3.046  -2.969   1.801  0.00  0.00    +0.000 C 
ATOM     24  C   UNL     1       3.336  -4.264   2.102  0.00  0.00    +0.000 C 
ATOM     25  C   UNL     1       4.602  -4.601   2.872  0.00  0.00    +0.000 C 
BRANCH  23  26
ATOM     26  C   UNL     1       1.780  -2.632   1.032  0.00  0.00    +0.000 C 
BRANCH  26  30
ATOM     27  C   UNL     1       1.084  -0.014   0.053  0.00  0.00    +0.000 C 
ATOM     28  C   UNL     1       0.577  -0.478   1.409  0.00  0.00    +0.000 C 
ATOM     29  C   UNL     1      -0.297   0.440   2.248  0.00  0.00    +0.000 C 
ATOM     30  C   UNL     1       0.906  -1.714   1.871  0.00  0.00    +0.000 C 
ENDBRANCH  26  30
ENDBRANCH  23  26
ENDBRANCH   1  24
BRANCH  13  31
ATOM     31  O   UNL     1       8.051  -1.953  -1.835  0.00  0.00    +0.000 OA
ATOM     32  H   UNL     1       8.129  -1.731  -0.863  0.00  0.00    +0.000 HD
ENDBRANCH  13  31
BRANCH   7  33
ATOM     33  O   UNL     1       4.952  -5.679   1.507  0.00  0.00    +0.000 OA
ATOM     34  H   UNL     1       4.892  -4.818   1.004  0.00  0.00    +0.000 HD
ENDBRANCH   7  33
BRANCH  14  35
ATOM     35  O   UNL     1       4.799  -3.028  -1.786  0.00  0.00    +0.000 OA
BRANCH  35  36
ATOM     36  C   UNL     1       4.664  -3.384  -3.154  0.00  0.00    +0.000 C 
ATOM     37  O   UNL     1       4.435  -2.126  -3.995  0.00  0.00    +0.000 OA
ATOM     38  C   UNL     1       5.572  -1.267  -3.887  0.00  0.00    +0.000 C 
ATOM     39  C   UNL     1       6.788  -1.848  -4.360  0.00  0.00    +0.000 C 
ATOM     40  C   UNL     1       7.113  -3.095  -3.534  0.00  0.00    +0.000 C 
ATOM     41  C   UNL     1       5.944  -4.080  -3.630  0.00  0.00    +0.000 C 
BRANCH  40  42
ATOM     42  O   UNL     1       7.319  -2.728  -2.178  0.00  0.00    +0.000 OA
ATOM     43  H   UNL     1       6.491  -2.298  -1.819  0.00  0.00    +0.000 HD
ENDBRANCH  40  42
BRANCH  39  44
ATOM     44  O   UNL     1       7.844  -0.907  -4.232  0.00  0.00    +0.000 OA
ATOM     45  H   UNL     1       7.948  -0.652  -3.271  0.00  0.00    +0.000 HD
ENDBRANCH  39  44
BRANCH  41  46
ATOM     46  O   UNL     1       6.204  -5.214  -2.815  0.00  0.00    +0.000 OA
BRANCH  46  47
ATOM     47  C   UNL     1       6.364  -4.800  -1.466  0.00  0.00    +0.000 C 
ATOM     48  O   UNL     1       7.531  -3.814  -1.375  0.00  0.00    +0.000 OA
ATOM     49  C   UNL     1       7.234  -2.653  -2.153  0.00  0.00    +0.000 C 
ATOM     50  C   UNL     1       6.075  -1.940  -1.717  0.00  0.00    +0.000 C 
ATOM     51  C   UNL     1       4.849  -2.851  -1.822  0.00  0.00    +0.000 C 
ATOM     52  C   UNL     1       5.085  -4.110  -0.982  0.00  0.00    +0.000 C 
BRANCH  52  53
ATOM     53  O   UNL     1       3.982  -4.993  -1.122  0.00  0.00    +0.000 OA
ATOM     54  H   UNL     1       3.879  -5.248  -2.083  0.00  0.00    +0.000 HD
ENDBRANCH  52  53
BRANCH  51  55
ATOM     55  O   UNL     1       4.637  -3.213  -3.178  0.00  0.00    +0.000 OA
ATOM     56  H   UNL     1       5.442  -3.697  -3.523  0.00  0.00    +0.000 HD
ENDBRANCH  51  55
BRANCH  50  57
ATOM     57  O   UNL     1       5.886  -0.796  -2.536  0.00  0.00    +0.000 OA
ATOM     58  H   UNL     1       5.764  -1.083  -3.487  0.00  0.00    +0.000 HD
ENDBRANCH  50  57
BRANCH  49  59
ATOM     59  C   UNL     1       6.949  -3.132  -3.567  0.00  0.00    +0.000 C 
BRANCH  59  60
ATOM     60  O   UNL     1       6.673  -2.015  -4.399  0.00  0.00    +0.000 OA
ATOM     61  H   UNL     1       5.875  -1.526  -4.045  0.00  0.00    +0.000 HD
ENDBRANCH  59  60
ENDBRANCH  49  59
ENDBRANCH  46  47
ENDBRANCH  41  46
BRANCH  38  62
ATOM     62  C   UNL     1       5.768  -0.984  -2.407  0.00  0.00    +0.000 C 
BRANCH  62  63
ATOM     63  O   UNL     1       6.873  -0.108  -2.235  0.00  0.00    +0.000 OA
ATOM     64  H   UNL     1       7.697  -0.536  -2.604  0.00  0.00    +0.000 HD
ENDBRANCH  62  63
ENDBRANCH  38  62
ENDBRANCH  35  36
ENDBRANCH  14  35
TORSDOF 18
