REMARK  Name = 
REMARK  26 active torsions:
REMARK  status: ('A' for Active; 'I' for Inactive)
REMARK    1  A    between atoms: C_2  and  C_3
REMARK    2  A    between atoms: C_2  and  C_9
REMARK    3  A    between atoms: C_3  and  C_4
REMARK    4  A    between atoms: C_4  and  C_5
REMARK    5  A    between atoms: C_6  and  C_7
REMARK    6  A    between atoms: C_6  and  C_8
REMARK    7  A    between atoms: C_12  and  C_13
REMARK    8  A    between atoms: C_15  and  O_16
REMARK    9  A    between atoms: C_19  and  C_20
REMARK   10  A    between atoms: C_22  and  O_23
REMARK   11  A    between atoms: C_24  and  O_25
REMARK   12  A    between atoms: O_25  and  C_26
REMARK   13  A    between atoms: C_28  and  C_29
REMARK   14  A    between atoms: C_29  and  O_30
REMARK   15  A    between atoms: C_31  and  O_32
REMARK   16  A    between atoms: C_33  and  O_34
REMARK   17  A    between atoms: C_35  and  O_36
REMARK   18  A    between atoms: O_36  and  C_37
REMARK   19  A    between atoms: C_39  and  C_40
REMARK   20  A    between atoms: C_40  and  O_41
REMARK   21  A    between atoms: C_42  and  O_43
REMARK   22  A    between atoms: C_44  and  O_45
REMARK   23  A    between atoms: C_46  and  O_47
REMARK   24  A    between atoms: C_48  and  C_49
REMARK   25  A    between atoms: C_48  and  C_50
REMARK   26  A    between atoms: C_54  and  C_55
REMARK                            x       y       z     vdW  Elec       q    Type
REMARK                         _______ _______ _______ _____ _____    ______ ____
ROOT
ATOM      1  C   UNL     1       1.152   1.621  -1.913  0.00  0.00    +0.000 C 
ATOM      2  C   UNL     1       1.977   0.687  -2.802  0.00  0.00    +0.000 C 
ATOM      3  C   UNL     1       2.309  -0.591  -2.029  0.00  0.00    +0.000 C 
ATOM      4  C   UNL     1       1.645  -1.788  -2.712  0.00  0.00    +0.000 C 
ATOM      5  C   UNL     1       1.829  -2.826  -3.808  0.00  0.00    +0.000 C 
ATOM      6  C   UNL     1       0.166   2.408  -2.777  0.00  0.00    +0.000 C 
ATOM      7  C   UNL     1      -1.026   2.846  -1.921  0.00  0.00    +0.000 C 
ATOM      8  C   UNL     1      -2.302   2.803  -2.763  0.00  0.00    +0.000 C 
ATOM      9  C   UNL     1      -3.450   2.243  -1.921  0.00  0.00    +0.000 C 
ATOM     10  C   UNL     1      -4.139   1.111  -2.684  0.00  0.00    +0.000 C 
ATOM     11  C   UNL     1      -4.651   2.003  -3.803  0.00  0.00    +0.000 C 
ATOM     12  C   UNL     1      -4.561   0.017  -1.701  0.00  0.00    +0.000 C 
ATOM     13  C   UNL     1      -4.513  -1.324  -2.390  0.00  0.00    +0.000 C 
ATOM     14  C   UNL     1      -3.350  -1.990  -2.481  0.00  0.00    +0.000 C 
ATOM     15  C   UNL     1      -3.380  -3.280  -3.145  0.00  0.00    +0.000 C 
ATOM     16  C   UNL     1      -4.681  -3.992  -2.813  0.00  0.00    +0.000 C 
ATOM     17  C   UNL     1      -3.283  -3.079  -4.648  0.00  0.00    +0.000 C 
ATOM     18  C   UNL     1      -2.198  -4.125  -2.665  0.00  0.00    +0.000 C 
ATOM     19  C   UNL     1      -1.182  -3.255  -2.099  0.00  0.00    +0.000 C 
ATOM     20  C   UNL     1       0.095  -3.656  -2.209  0.00  0.00    +0.000 C 
ATOM     21  C   UNL     1       1.203  -2.799  -1.653  0.00  0.00    +0.000 C 
ATOM     22  C   UNL     1       2.164  -3.506  -0.712  0.00  0.00    +0.000 C 
ENDROOT
BRANCH   1  24
ATOM     23  C   UNL     1       1.073   0.060   0.033  0.00  0.00    +0.000 C 
ATOM     24  C   UNL     1       0.392   0.797  -0.886  0.00  0.00    +0.000 C 
BRANCH  24  25
ATOM     25  C   UNL     1      -1.128   0.797  -0.886  0.00  0.00    +0.000 C 
BRANCH  25  26
ATOM     26  C   UNL     1      -1.634   2.214  -0.669  0.00  0.00    +0.000 C 
BRANCH  26  27
ATOM     27  C   UNL     1      -1.128   3.110  -1.787  0.00  0.00    +0.000 C 
ATOM     28  C   UNL     1      -2.012   3.757  -2.594  0.00  0.00    +0.000 C 
ATOM     29  C   UNL     1      -1.505   4.654  -3.712  0.00  0.00    +0.000 C 
ATOM     30  C   UNL     1      -3.506   3.583  -2.377  0.00  0.00    +0.000 C 
ENDBRANCH  26  27
ENDBRANCH  25  26
ENDBRANCH  24  25
ENDBRANCH   1  24
BRANCH  13  31
ATOM     31  O   UNL     1      -5.299  -2.153  -1.547  0.00  0.00    +0.000 OA
ATOM     32  H   UNL     1      -4.869  -2.216  -0.646  0.00  0.00    +0.000 HD
ENDBRANCH  13  31
BRANCH   7  33
ATOM     33  O   UNL     1      -1.160   1.968  -0.813  0.00  0.00    +0.000 OA
ATOM     34  H   UNL     1      -1.310   1.036  -1.143  0.00  0.00    +0.000 HD
ENDBRANCH   7  33
BRANCH  14  35
ATOM     35  O   UNL     1      -2.522  -1.175  -3.297  0.00  0.00    +0.000 OA
BRANCH  35  36
ATOM     36  C   UNL     1      -3.107  -1.044  -4.584  0.00  0.00    +0.000 C 
ATOM     37  O   UNL     1      -3.256  -2.427  -5.222  0.00  0.00    +0.000 OA
ATOM     38  C   UNL     1      -4.139  -3.224  -4.430  0.00  0.00    +0.000 C 
ATOM     39  C   UNL     1      -5.460  -2.692  -4.316  0.00  0.00    +0.000 C 
ATOM     40  C   UNL     1      -5.400  -1.319  -3.640  0.00  0.00    +0.000 C 
ATOM     41  C   UNL     1      -4.490  -0.397  -4.457  0.00  0.00    +0.000 C 
BRANCH  40  42
ATOM     42  O   UNL     1      -4.884  -1.456  -2.325  0.00  0.00    +0.000 OA
ATOM     43  H   UNL     1      -3.965  -1.847  -2.366  0.00  0.00    +0.000 HD
ENDBRANCH  40  42
BRANCH  39  44
ATOM     44  O   UNL     1      -6.258  -3.569  -3.535  0.00  0.00    +0.000 OA
ATOM     45  H   UNL     1      -5.857  -3.663  -2.624  0.00  0.00    +0.000 HD
ENDBRANCH  39  44
BRANCH  38  46
ATOM     46  C   UNL     1      -3.558  -3.259  -3.026  0.00  0.00    +0.000 C 
BRANCH  46  47
ATOM     47  O   UNL     1      -4.380  -4.063  -2.193  0.00  0.00    +0.000 OA
ATOM     48  H   UNL     1      -5.302  -3.677  -2.162  0.00  0.00    +0.000 HD
ENDBRANCH  46  47
ENDBRANCH  38  46
BRANCH  41  49
ATOM     49  O   UNL     1      -4.374   0.860  -3.808  0.00  0.00    +0.000 OA
BRANCH  49  50
ATOM     50  C   UNL     1      -3.819   0.675  -2.514  0.00  0.00    +0.000 C 
ATOM     51  O   UNL     1      -4.725  -0.249  -1.696  0.00  0.00    +0.000 OA
ATOM     52  C   UNL     1      -4.793  -1.530  -2.327  0.00  0.00    +0.000 C 
ATOM     53  C   UNL     1      -3.533  -2.196  -2.433  0.00  0.00    +0.000 C 
ATOM     54  C   UNL     1      -2.580  -1.350  -3.280  0.00  0.00    +0.000 C 
ATOM     55  C   UNL     1      -2.433   0.035  -2.642  0.00  0.00    +0.000 C 
BRANCH  55  56
ATOM     56  O   UNL     1      -1.602   0.851  -3.454  0.00  0.00    +0.000 OA
ATOM     57  H   UNL     1      -2.010   0.944  -4.361  0.00  0.00    +0.000 HD
ENDBRANCH  55  56
BRANCH  54  58
ATOM     58  O   UNL     1      -3.099  -1.218  -4.595  0.00  0.00    +0.000 OA
ATOM     59  H   UNL     1      -3.994  -0.773  -4.557  0.00  0.00    +0.000 HD
ENDBRANCH  54  58
BRANCH  53  60
ATOM     60  O   UNL     1      -3.717  -3.462  -3.047  0.00  0.00    +0.000 OA
ATOM     61  H   UNL     1      -4.105  -3.337  -3.960  0.00  0.00    +0.000 HD
ENDBRANCH  53  60
BRANCH  52  62
ATOM     62  C   UNL     1      -5.284  -1.293  -3.746  0.00  0.00    +0.000 C 
BRANCH  62  63
ATOM     63  O   UNL     1      -5.400  -2.538  -4.420  0.00  0.00    +0.000 OA
ATOM     64  H   UNL     1      -4.507  -2.987  -4.447  0.00  0.00    +0.000 HD
ENDBRANCH  62  63
ENDBRANCH  52  62
ENDBRANCH  49  50
ENDBRANCH  41  49
ENDBRANCH  35  36
ENDBRANCH  14  35
TORSDOF 19
