REMARK  Name = 
REMARK  26 active torsions:
REMARK  status: ('A' for Active; 'I' for Inactive)
REMARK    1  A    between atoms: C_2  and  C_3
REMARK    2  A    between atoms: C_2  and  C_9
REMARK    3  A    between atoms: C_3  and  C_4
REMARK    4  A    between atoms: C_4  and  C_5
REMARK    5  A    between atoms: C_6  and  C_7
REMARK    6  A    between atoms: C_6  and  C_8
REMARK    7  A    between atoms: C_12  and  C_13
REMARK    8  A    between atoms: C_15  and  O_16
REMARK    9  A    between atoms: C_19  and  C_20
REMARK   10  A    between atoms: C_22  and  O_23
REMARK   11  A    between atoms: C_24  and  O_25
REMARK   12  A    between atoms: O_25  and  C_26
REMARK   13  A    between atoms: C_28  and  C_29
REMARK   14  A    between atoms: C_29  and  O_30
REMARK   15  A    between atoms: C_31  and  O_32
REMARK   16  A    between atoms: C_33  and  O_34
REMARK   17  A    between atoms: C_35  and  O_36
REMARK   18  A    between atoms: O_36  and  C_37
REMARK   19  A    between atoms: C_39  and  C_40
REMARK   20  A    between atoms: C_40  and  O_41
REMARK   21  A    between atoms: C_42  and  O_43
REMARK   22  A    between atoms: C_44  and  O_45
REMARK   23  A    between atoms: C_46  and  O_47
REMARK   24  A    between atoms: C_48  and  C_49
REMARK   25  A    between atoms: C_48  and  C_50
REMARK   26  A    between atoms: C_54  and  C_55
REMARK                            x       y       z     vdW  Elec       q    Type
REMARK                         _______ _______ _______ _____ _____    ______ ____
ROOT
ATOM      1  C   UNL     1       1.110  -2.394   0.959  0.00  0.00    +0.000 C 
ATOM      2  C   UNL     1       2.059  -2.656  -0.213  0.00  0.00    +0.000 C 
ATOM      3  C   UNL     1       1.341  -2.345  -1.529  0.00  0.00    +0.000 C 
ATOM      4  C   UNL     1       2.042  -1.179  -2.228  0.00  0.00    +0.000 C 
ATOM      5  C   UNL     1       3.178  -0.827  -3.175  0.00  0.00    +0.000 C 
ATOM      6  C   UNL     1       1.912  -1.894   2.162  0.00  0.00    +0.000 C 
ATOM      7  C   UNL     1       1.002  -1.071   3.076  0.00  0.00    +0.000 C 
ATOM      8  C   UNL     1       1.800   0.081   3.689  0.00  0.00    +0.000 C 
ATOM      9  C   UNL     1       0.939   1.344   3.709  0.00  0.00    +0.000 C 
ATOM     10  C   UNL     1       1.716   2.503   3.082  0.00  0.00    +0.000 C 
ATOM     11  C   UNL     1       2.786   2.539   4.161  0.00  0.00    +0.000 C 
ATOM     12  C   UNL     1       0.757   3.384   2.279  0.00  0.00    +0.000 C 
ATOM     13  C   UNL     1       1.493   3.995   1.113  0.00  0.00    +0.000 C 
ATOM     14  C   UNL     1       1.647   3.297  -0.023  0.00  0.00    +0.000 C 
ATOM     15  C   UNL     1       2.353   3.951  -1.109  0.00  0.00    +0.000 C 
ATOM     16  C   UNL     1       2.002   5.430  -1.125  0.00  0.00    +0.000 C 
ATOM     17  C   UNL     1       3.851   3.790  -0.909  0.00  0.00    +0.000 C 
ATOM     18  C   UNL     1       1.943   3.313  -2.438  0.00  0.00    +0.000 C 
ATOM     19  C   UNL     1       1.383   1.997  -2.188  0.00  0.00    +0.000 C 
ATOM     20  C   UNL     1       1.550   1.071  -3.146  0.00  0.00    +0.000 C 
ATOM     21  C   UNL     1       1.003  -0.320  -2.952  0.00  0.00    +0.000 C 
ATOM     22  C   UNL     1       0.120  -0.836  -4.076  0.00  0.00    +0.000 C 
ENDROOT
BRANCH   1  24
ATOM     23  C   UNL     1       1.030  -0.062   0.072  0.00  0.00    +0.000 C 
ATOM     24  C   UNL     1       0.350  -1.163   0.491  0.00  0.00    +0.000 C 
BRANCH  24  25
ATOM     25  C   UNL     1      -1.170  -1.163   0.491  0.00  0.00    +0.000 C 
BRANCH  25  26
ATOM     26  C   UNL     1      -1.676  -2.274  -0.414  0.00  0.00    +0.000 C 
BRANCH  26  27
ATOM     27  C   UNL     1      -1.170  -3.614   0.095  0.00  0.00    +0.000 C 
ATOM     28  C   UNL     1      -2.054  -4.580   0.463  0.00  0.00    +0.000 C 
ATOM     29  C   UNL     1      -1.547  -5.920   0.972  0.00  0.00    +0.000 C 
ATOM     30  C   UNL     1      -3.548  -4.321   0.364  0.00  0.00    +0.000 C 
ENDBRANCH  26  27
ENDBRANCH  25  26
ENDBRANCH  24  25
ENDBRANCH   1  24
BRANCH  13  31
ATOM     31  O   UNL     1       0.652   5.071   0.724  0.00  0.00    +0.000 OA
ATOM     32  H   UNL     1      -0.230   4.712   0.422  0.00  0.00    +0.000 HD
ENDBRANCH  13  31
BRANCH   7  33
ATOM     33  O   UNL     1      -0.079  -0.548   2.320  0.00  0.00    +0.000 OA
ATOM     34  H   UNL     1       0.276   0.037   1.590  0.00  0.00    +0.000 HD
ENDBRANCH   7  33
BRANCH  14  35
ATOM     35  O   UNL     1       2.462   2.190   0.333  0.00  0.00    +0.000 OA
BRANCH  35  36
ATOM     36  C   UNL     1       3.723   2.658   0.788  0.00  0.00    +0.000 C 
ATOM     37  O   UNL     1       4.254   3.525  -0.356  0.00  0.00    +0.000 OA
ATOM     38  C   UNL     1       3.304   4.550  -0.657  0.00  0.00    +0.000 C 
ATOM     39  C   UNL     1       3.042   5.439   0.430  0.00  0.00    +0.000 C 
ATOM     40  C   UNL     1       2.461   4.649   1.605  0.00  0.00    +0.000 C 
ATOM     41  C   UNL     1       3.447   3.546   2.005  0.00  0.00    +0.000 C 
BRANCH  40  42
ATOM     42  O   UNL     1       1.222   4.068   1.225  0.00  0.00    +0.000 OA
ATOM     43  H   UNL     1       1.367   3.453   0.450  0.00  0.00    +0.000 HD
ENDBRANCH  40  42
BRANCH  39  44
ATOM     44  O   UNL     1       2.110   6.428   0.018  0.00  0.00    +0.000 OA
ATOM     45  H   UNL     1       1.258   5.987  -0.265  0.00  0.00    +0.000 HD
ENDBRANCH  39  44
BRANCH  38  46
ATOM     46  C   UNL     1       1.993   3.851  -0.979  0.00  0.00    +0.000 C 
BRANCH  46  47
ATOM     47  O   UNL     1       1.011   4.820  -1.316  0.00  0.00    +0.000 OA
ATOM     48  H   UNL     1       0.877   5.441  -0.543  0.00  0.00    +0.000 HD
ENDBRANCH  46  47
ENDBRANCH  38  46
BRANCH  41  49
ATOM     49  O   UNL     1       2.892   2.764   3.053  0.00  0.00    +0.000 OA
BRANCH  49  50
ATOM     50  C   UNL     1       1.677   2.176   2.612  0.00  0.00    +0.000 C 
ATOM     51  O   UNL     1       0.509   3.129   2.349  0.00  0.00    +0.000 OA
ATOM     52  C   UNL     1       0.766   3.880   1.160  0.00  0.00    +0.000 C 
ATOM     53  C   UNL     1       0.902   3.080  -0.016  0.00  0.00    +0.000 C 
ATOM     54  C   UNL     1       2.086   2.125   0.151  0.00  0.00    +0.000 C 
ATOM     55  C   UNL     1       1.863   1.261   1.397  0.00  0.00    +0.000 C 
BRANCH  55  56
ATOM     56  O   UNL     1       2.984   0.415   1.601  0.00  0.00    +0.000 OA
ATOM     57  H   UNL     1       3.805   0.973   1.725  0.00  0.00    +0.000 HD
ENDBRANCH  55  56
BRANCH  54  58
ATOM     58  O   UNL     1       3.285   2.871   0.296  0.00  0.00    +0.000 OA
ATOM     59  H   UNL     1       3.216   3.460   1.102  0.00  0.00    +0.000 HD
ENDBRANCH  54  58
BRANCH  53  60
ATOM     60  O   UNL     1       1.127   3.922  -1.137  0.00  0.00    +0.000 OA
ATOM     61  H   UNL     1       1.964   4.450  -0.995  0.00  0.00    +0.000 HD
ENDBRANCH  53  60
BRANCH  52  62
ATOM     62  C   UNL     1       2.096   4.586   1.367  0.00  0.00    +0.000 C 
BRANCH  62  63
ATOM     63  O   UNL     1       2.395   5.375   0.224  0.00  0.00    +0.000 OA
ATOM     64  H   UNL     1       2.452   4.786  -0.582  0.00  0.00    +0.000 HD
ENDBRANCH  62  63
ENDBRANCH  52  62
ENDBRANCH  49  50
ENDBRANCH  41  49
ENDBRANCH  35  36
ENDBRANCH  14  35
TORSDOF 19
