REMARK  Name = 
REMARK  2 active torsions:
REMARK  status: ('A' for Active; 'I' for Inactive)
REMARK    1  A    between atoms: C_8  and  O_9
REMARK    2  A    between atoms: C_10  and  O_11
REMARK                            x       y       z     vdW  Elec       q    Type
REMARK                         _______ _______ _______ _____ _____    ______ ____
ROOT
ATOM      1  O   UNL     1       1.026   0.090  -0.036  0.00  0.00    +0.000 OA
ATOM      2  C   UNL     1       2.297   0.090  -0.036  0.00  0.00    +0.000 A 
ATOM      3  C   UNL     1       2.941  -1.060  -0.051  0.00  0.00    +0.000 A 
ATOM      4  C   UNL     1       4.262  -1.128  -0.054  0.00  0.00    +0.000 A 
ATOM      5  C   UNL     1       4.984  -0.023  -0.041  0.00  0.00    +0.000 A 
ATOM      6  C   UNL     1       6.374  -0.033  -0.048  0.00  0.00    +0.000 A 
ATOM      7  C   UNL     1       6.988   1.153  -0.517  0.00  0.00    +0.000 A 
ATOM      8  C   UNL     1       6.362   2.346  -0.237  0.00  0.00    +0.000 A 
ATOM      9  C   UNL     1       5.081   2.376  -0.001  0.00  0.00    +0.000 A 
ATOM     10  C   UNL     1       4.337   1.229  -0.020  0.00  0.00    +0.000 A 
ATOM     11  O   UNL     1       2.946   1.248  -0.020  0.00  0.00    +0.000 OA
ENDROOT
BRANCH   8  12
ATOM     12  O   UNL     1       7.115   3.550  -0.204  0.00  0.00    +0.000 OA
ATOM     13  H   UNL     1       8.098   3.529  -0.384  0.00  0.00    +0.000 HD
ENDBRANCH   8  12
BRANCH   9  14
ATOM     14  O   UNL     1       4.449   3.616   0.280  0.00  0.00    +0.000 OA
ATOM     15  H   UNL     1       4.987   4.459   0.295  0.00  0.00    +0.000 HD
ENDBRANCH   9  14
TORSDOF 2
