
 OpenBabel03132512093D

 19 20  0  0  0  0  0  0  0  0999 V2000
    0.9140   -0.0508    0.0036 O   0  0  0  0  0  0  0  0  0  0  0  0
    2.1849   -0.0508    0.0036 C   0  0  0  0  0  0  0  0  0  0  0  0
    2.8289   -1.2003   -0.0117 C   0  0  0  0  0  0  0  0  0  0  0  0
    4.1494   -1.2681   -0.0143 C   0  0  0  0  0  0  0  0  0  0  0  0
    4.8715   -0.1636   -0.0016 C   0  0  0  0  0  0  0  0  0  0  0  0
    6.2617   -0.1731   -0.0087 C   0  0  0  0  0  0  0  0  0  0  0  0
    6.8758    1.0129   -0.4780 C   0  0  0  0  0  0  0  0  0  0  0  0
    6.2496    2.2057   -0.1973 C   0  0  0  0  0  0  0  0  0  0  0  0
    7.0028    3.4090   -0.1642 O   0  0  0  0  0  0  0  0  0  0  0  0
    4.9686    2.2356    0.0383 C   0  0  0  0  0  0  0  0  0  0  0  0
    4.3365    3.4759    0.3188 O   0  0  0  0  0  0  0  0  0  0  0  0
    4.2246    1.0882    0.0189 C   0  0  0  0  0  0  0  0  0  0  0  0
    2.8342    1.1080    0.0190 O   0  0  0  0  0  0  0  0  0  0  0  0
    2.2645   -2.1092   -0.0224 H   0  0  0  0  0  0  0  0  0  0  0  0
    4.6342   -2.2219   -0.0268 H   0  0  0  0  0  0  0  0  0  0  0  0
    6.8290   -1.0194    0.3184 H   0  0  0  0  0  0  0  0  0  0  0  0
    7.7919    0.9830   -1.0299 H   0  0  0  0  0  0  0  0  0  0  0  0
    7.9861    3.3885   -0.3447 H   0  0  0  0  0  0  0  0  0  0  0  0
    4.8743    4.3188    0.3347 H   0  0  0  0  0  0  0  0  0  0  0  0
  1  2  2  0  0  0  0
  2  3  1  0  0  0  0
  2 13  1  0  0  0  0
  3  4  2  0  0  0  0
  3 14  1  0  0  0  0
  4  5  1  0  0  0  0
  4 15  1  0  0  0  0
  5  6  1  0  0  0  0
  5 12  2  0  0  0  0
  6  7  2  0  0  0  0
  6 16  1  0  0  0  0
  7  8  1  0  0  0  0
  7 17  1  0  0  0  0
  8  9  1  0  0  0  0
  8 10  2  0  0  0  0
  9 18  1  0  0  0  0
 10 11  1  0  0  0  0
 10 12  1  0  0  0  0
 11 19  1  0  0  0  0
 12 13  1  0  0  0  0
M  END
