
 OpenBabel03132514253D

 19 20  0  0  0  0  0  0  0  0999 V2000
    1.0262    0.0896   -0.0357 O   0  0  0  0  0  0  0  0  0  0  0  0
    2.2971    0.0896   -0.0357 C   0  0  0  0  0  0  0  0  0  0  0  0
    2.9412   -1.0598   -0.0510 C   0  0  0  0  0  0  0  0  0  0  0  0
    4.2617   -1.1276   -0.0537 C   0  0  0  0  0  0  0  0  0  0  0  0
    4.9838   -0.0231   -0.0409 C   0  0  0  0  0  0  0  0  0  0  0  0
    6.3740   -0.0327   -0.0480 C   0  0  0  0  0  0  0  0  0  0  0  0
    6.9880    1.1534   -0.5173 C   0  0  0  0  0  0  0  0  0  0  0  0
    6.3618    2.3462   -0.2366 C   0  0  0  0  0  0  0  0  0  0  0  0
    7.1150    3.5495   -0.2036 O   0  0  0  0  0  0  0  0  0  0  0  0
    5.0809    2.3761   -0.0010 C   0  0  0  0  0  0  0  0  0  0  0  0
    4.4488    3.6163    0.2795 O   0  0  0  0  0  0  0  0  0  0  0  0
    4.3369    1.2287   -0.0204 C   0  0  0  0  0  0  0  0  0  0  0  0
    2.9465    1.2485   -0.0203 O   0  0  0  0  0  0  0  0  0  0  0  0
    2.3767   -1.9687   -0.0617 H   0  0  0  0  0  0  0  0  0  0  0  0
    4.7465   -2.0814   -0.0662 H   0  0  0  0  0  0  0  0  0  0  0  0
    6.9412   -0.8789    0.2791 H   0  0  0  0  0  0  0  0  0  0  0  0
    7.9042    1.1235   -1.0693 H   0  0  0  0  0  0  0  0  0  0  0  0
    8.0984    3.5289   -0.3841 H   0  0  0  0  0  0  0  0  0  0  0  0
    4.9866    4.4593    0.2953 H   0  0  0  0  0  0  0  0  0  0  0  0
  1  2  2  0  0  0  0
  2  3  1  0  0  0  0
  2 13  1  0  0  0  0
  3  4  2  0  0  0  0
  3 14  1  0  0  0  0
  4  5  1  0  0  0  0
  4 15  1  0  0  0  0
  5  6  1  0  0  0  0
  5 12  2  0  0  0  0
  6  7  2  0  0  0  0
  6 16  1  0  0  0  0
  7  8  1  0  0  0  0
  7 17  1  0  0  0  0
  8  9  1  0  0  0  0
  8 10  2  0  0  0  0
  9 18  1  0  0  0  0
 10 11  1  0  0  0  0
 10 12  1  0  0  0  0
 11 19  1  0  0  0  0
 12 13  1  0  0  0  0
M  END
