REMARK  Name = 
REMARK  2 active torsions:
REMARK  status: ('A' for Active; 'I' for Inactive)
REMARK    1  A    between atoms: C_8  and  O_9
REMARK    2  A    between atoms: C_10  and  O_11
REMARK                            x       y       z     vdW  Elec       q    Type
REMARK                         _______ _______ _______ _____ _____    ______ ____
ROOT
ATOM      1  O   UNL     1       0.914  -0.051   0.004  0.00  0.00    +0.000 OA
ATOM      2  C   UNL     1       2.185  -0.051   0.004  0.00  0.00    +0.000 A 
ATOM      3  C   UNL     1       2.829  -1.200  -0.012  0.00  0.00    +0.000 A 
ATOM      4  C   UNL     1       4.149  -1.268  -0.014  0.00  0.00    +0.000 A 
ATOM      5  C   UNL     1       4.872  -0.164  -0.002  0.00  0.00    +0.000 A 
ATOM      6  C   UNL     1       6.262  -0.173  -0.009  0.00  0.00    +0.000 A 
ATOM      7  C   UNL     1       6.876   1.013  -0.478  0.00  0.00    +0.000 A 
ATOM      8  C   UNL     1       6.250   2.206  -0.197  0.00  0.00    +0.000 A 
ATOM      9  C   UNL     1       4.969   2.236   0.038  0.00  0.00    +0.000 A 
ATOM     10  C   UNL     1       4.225   1.088   0.019  0.00  0.00    +0.000 A 
ATOM     11  O   UNL     1       2.834   1.108   0.019  0.00  0.00    +0.000 OA
ENDROOT
BRANCH   8  12
ATOM     12  O   UNL     1       7.003   3.409  -0.164  0.00  0.00    +0.000 OA
ATOM     13  H   UNL     1       7.986   3.389  -0.345  0.00  0.00    +0.000 HD
ENDBRANCH   8  12
BRANCH   9  14
ATOM     14  O   UNL     1       4.337   3.476   0.319  0.00  0.00    +0.000 OA
ATOM     15  H   UNL     1       4.874   4.319   0.335  0.00  0.00    +0.000 HD
ENDBRANCH   9  14
TORSDOF 2
