REMARK  Name = 
REMARK  6 active torsions:
REMARK  status: ('A' for Active; 'I' for Inactive)
REMARK    1  A    between atoms: C_1  and  O_2
REMARK    2  A    between atoms: O_2  and  C_3
REMARK    3  A    between atoms: C_8  and  O_9
REMARK    4  A    between atoms: O_9  and  C_10
REMARK    5  A    between atoms: C_26  and  C_27
REMARK    6  A    between atoms: C_26  and  C_28
REMARK                            x       y       z     vdW  Elec       q    Type
REMARK                         _______ _______ _______ _____ _____    ______ ____
ROOT
ATOM      1  C   UNL     1       0.938   0.044   2.501  0.00  0.00    +0.000 A 
ATOM      2  C   UNL     1       2.263  -0.366   2.820  0.00  0.00    +0.000 A 
ATOM      3  C   UNL     1       2.504  -1.030   4.034  0.00  0.00    +0.000 A 
ATOM      4  C   UNL     1       1.599  -1.028   4.968  0.00  0.00    +0.000 A 
ATOM      5  C   UNL     1       0.387  -0.354   4.770  0.00  0.00    +0.000 A 
ATOM      6  C   UNL     1       0.016   0.049   3.465  0.00  0.00    +0.000 A 
ATOM      7  C   UNL     1       1.858  -1.757   6.277  0.00  0.00    +0.000 C 
ATOM      8  C   UNL     1       1.848  -0.674   7.309  0.00  0.00    +0.000 C 
ATOM      9  O   UNL     1       2.059   0.547   7.028  0.00  0.00    +0.000 OA
ATOM     10  C   UNL     1       1.569  -1.148   8.696  0.00  0.00    +0.000 A 
ATOM     11  C   UNL     1       1.832  -0.326   9.788  0.00  0.00    +0.000 A 
ATOM     12  C   UNL     1       1.568  -0.770  11.069  0.00  0.00    +0.000 A 
ATOM     13  C   UNL     1       1.039  -2.035  11.259  0.00  0.00    +0.000 A 
ATOM     14  C   UNL     1       0.775  -2.868  10.161  0.00  0.00    +0.000 A 
ATOM     15  C   UNL     1       1.040  -2.426   8.865  0.00  0.00    +0.000 A 
ATOM     16  O   UNL     1       0.754  -3.332   7.704  0.00  0.00    +0.000 OA
ATOM     17  C   UNL     1       0.901  -2.718   6.436  0.00  0.00    +0.000 C 
ATOM     18  C   UNL     1      -0.407  -1.970   6.237  0.00  0.00    +0.000 C 
ATOM     19  O   UNL     1       3.737  -1.705   4.241  0.00  0.00    +0.000 OA
ATOM     20  C   UNL     1       0.218  -4.213  10.406  0.00  0.00    +0.000 C 
ATOM     21  C   UNL     1      -0.306  -4.500  11.591  0.00  0.00    +0.000 C 
ATOM     22  C   UNL     1      -0.357  -3.470  12.688  0.00  0.00    +0.000 C 
ATOM     23  C   UNL     1      -0.238  -4.167  14.034  0.00  0.00    +0.000 C 
ATOM     24  C   UNL     1      -1.677  -2.718  12.613  0.00  0.00    +0.000 C 
ATOM     25  O   UNL     1       0.752  -2.520  12.537  0.00  0.00    +0.000 OA
ENDROOT
BRANCH   1  27
ATOM     26  C   UNL     1       1.069  -0.056   0.047  0.00  0.00    +0.000 C 
ATOM     27  O   UNL     1       0.595   0.573   1.228  0.00  0.00    +0.000 OA
ENDBRANCH   1  27
BRANCH   6  28
ATOM     28  O   UNL     1      -1.316   0.454   3.186  0.00  0.00    +0.000 OA
ATOM     29  C   UNL     1      -1.676   0.856   1.872  0.00  0.00    +0.000 C 
ENDBRANCH   6  28
TORSDOF 2
