
 OpenBabel03132514253D

 51 55  0  0  0  0  0  0  0  0999 V2000
    1.0687   -0.0557    0.0467 C   0  0  0  0  0  0  0  0  0  0  0  0
    0.5953    0.5732    1.2285 O   0  0  0  0  0  0  0  0  0  0  0  0
    0.9384    0.0439    2.5007 C   0  0  0  0  0  0  0  0  0  0  0  0
    2.2626   -0.3665    2.8203 C   0  0  0  0  0  0  0  0  0  0  0  0
    2.5042   -1.0304    4.0341 C   0  0  0  0  0  0  0  0  0  0  0  0
    1.5995   -1.0279    4.9685 C   0  0  0  0  0  0  0  0  0  0  0  0
    0.3870   -0.3542    4.7703 C   0  0  0  0  0  0  0  0  0  0  0  0
    0.0160    0.0494    3.4646 C   0  0  0  0  0  0  0  0  0  0  0  0
   -1.3164    0.4536    3.1857 O   0  0  0  0  0  0  0  0  0  0  0  0
   -1.6761    0.8561    1.8723 C   0  0  0  0  0  0  0  0  0  0  0  0
    1.8578   -1.7567    6.2771 C   0  0  0  0  0  0  0  0  0  0  0  0
    1.8476   -0.6742    7.3090 C   0  0  0  0  0  0  0  0  0  0  0  0
    2.0587    0.5471    7.0279 O   0  0  0  0  0  0  0  0  0  0  0  0
    1.5687   -1.1479    8.6958 C   0  0  0  0  0  0  0  0  0  0  0  0
    1.8318   -0.3260    9.7876 C   0  0  0  0  0  0  0  0  0  0  0  0
    1.5684   -0.7701   11.0692 C   0  0  0  0  0  0  0  0  0  0  0  0
    1.0392   -2.0347   11.2587 C   0  0  0  0  0  0  0  0  0  0  0  0
    0.7749   -2.8676   10.1605 C   0  0  0  0  0  0  0  0  0  0  0  0
    1.0398   -2.4258    8.8649 C   0  0  0  0  0  0  0  0  0  0  0  0
    0.7541   -3.3318    7.7042 O   0  0  0  0  0  0  0  0  0  0  0  0
    0.9012   -2.7176    6.4362 C   0  0  0  0  0  0  0  0  0  0  0  0
   -0.4070   -1.9698    6.2366 C   0  0  0  0  0  0  0  0  0  0  0  0
    3.7366   -1.7047    4.2412 O   0  0  0  0  0  0  0  0  0  0  0  0
    0.2178   -4.2130   10.4064 C   0  0  0  0  0  0  0  0  0  0  0  0
   -0.3064   -4.5000   11.5912 C   0  0  0  0  0  0  0  0  0  0  0  0
   -0.3575   -3.4696   12.6884 C   0  0  0  0  0  0  0  0  0  0  0  0
   -0.2380   -4.1667   14.0339 C   0  0  0  0  0  0  0  0  0  0  0  0
   -1.6767   -2.7184   12.6128 C   0  0  0  0  0  0  0  0  0  0  0  0
    0.7519   -2.5203   12.5371 O   0  0  0  0  0  0  0  0  0  0  0  0
    0.7120    0.4785   -0.8090 H   0  0  0  0  0  0  0  0  0  0  0  0
    0.7120   -1.0639    0.0119 H   0  0  0  0  0  0  0  0  0  0  0  0
    2.1387   -0.0557    0.0467 H   0  0  0  0  0  0  0  0  0  0  0  0
    3.0670   -0.1711    2.1422 H   0  0  0  0  0  0  0  0  0  0  0  0
   -0.2549   -0.1459    5.6007 H   0  0  0  0  0  0  0  0  0  0  0  0
   -1.0843    1.6993    1.5830 H   0  0  0  0  0  0  0  0  0  0  0  0
   -1.5031    0.0487    1.1918 H   0  0  0  0  0  0  0  0  0  0  0  0
   -2.7119    1.1236    1.8523 H   0  0  0  0  0  0  0  0  0  0  0  0
    2.7865   -2.2851    6.3347 H   0  0  0  0  0  0  0  0  0  0  0  0
    2.2389    0.6516    9.6342 H   0  0  0  0  0  0  0  0  0  0  0  0
    1.7723   -0.1402   11.9098 H   0  0  0  0  0  0  0  0  0  0  0  0
    1.1168   -3.4951    5.7334 H   0  0  0  0  0  0  0  0  0  0  0  0
   -1.2243   -2.6575    6.3004 H   0  0  0  0  0  0  0  0  0  0  0  0
   -0.5098   -1.2223    6.9953 H   0  0  0  0  0  0  0  0  0  0  0  0
    0.2368   -4.9525    9.6333 H   0  0  0  0  0  0  0  0  0  0  0  0
   -0.6992   -5.4791   11.7698 H   0  0  0  0  0  0  0  0  0  0  0  0
   -0.2760   -3.4389   14.8173 H   0  0  0  0  0  0  0  0  0  0  0  0
   -1.0460   -4.8584   14.1501 H   0  0  0  0  0  0  0  0  0  0  0  0
    0.6922   -4.6935   14.0812 H   0  0  0  0  0  0  0  0  0  0  0  0
   -1.7569   -2.2333   11.6624 H   0  0  0  0  0  0  0  0  0  0  0  0
   -2.4867   -3.4074   12.7310 H   0  0  0  0  0  0  0  0  0  0  0  0
   -1.7151   -1.9857   13.3916 H   0  0  0  0  0  0  0  0  0  0  0  0
  1  2  1  0  0  0  0
  1 30  1  0  0  0  0
  1 31  1  0  0  0  0
  1 32  1  0  0  0  0
  2  3  1  0  0  0  0
  3  4  1  0  0  0  0
  3  8  2  0  0  0  0
  4  5  2  0  0  0  0
  4 33  1  0  0  0  0
  5  6  1  0  0  0  0
  5 23  1  0  0  0  0
  6  7  2  0  0  0  0
  6 11  1  0  0  0  0
  7  8  1  0  0  0  0
  7 34  1  0  0  0  0
  8  9  1  0  0  0  0
  9 10  1  0  0  0  0
 10 35  1  0  0  0  0
 10 36  1  0  0  0  0
 10 37  1  0  0  0  0
 11 12  1  0  0  0  0
 11 21  1  0  0  0  0
 11 38  1  0  0  0  0
 12 13  2  0  0  0  0
 12 14  1  0  0  0  0
 14 15  1  0  0  0  0
 14 19  2  0  0  0  0
 15 16  2  0  0  0  0
 15 39  1  0  0  0  0
 16 17  1  0  0  0  0
 16 40  1  0  0  0  0
 17 18  2  0  0  0  0
 17 29  1  0  0  0  0
 18 19  1  0  0  0  0
 18 24  1  0  0  0  0
 19 20  1  0  0  0  0
 20 21  1  0  0  0  0
 21 22  1  0  0  0  0
 21 41  1  0  0  0  0
 22 23  1  0  0  0  0
 22 42  1  0  0  0  0
 22 43  1  0  0  0  0
 24 25  2  0  0  0  0
 24 44  1  0  0  0  0
 25 26  1  0  0  0  0
 25 45  1  0  0  0  0
 26 27  1  0  0  0  0
 26 28  1  0  0  0  0
 26 29  1  0  0  0  0
 27 46  1  0  0  0  0
 27 47  1  0  0  0  0
 27 48  1  0  0  0  0
 28 49  1  0  0  0  0
 28 50  1  0  0  0  0
 28 51  1  0  0  0  0
M  END
