REMARK  Name = 
REMARK  6 active torsions:
REMARK  status: ('A' for Active; 'I' for Inactive)
REMARK    1  A    between atoms: C_1  and  O_2
REMARK    2  A    between atoms: O_2  and  C_3
REMARK    3  A    between atoms: C_8  and  O_9
REMARK    4  A    between atoms: O_9  and  C_10
REMARK    5  A    between atoms: C_26  and  C_27
REMARK    6  A    between atoms: C_26  and  C_28
REMARK                            x       y       z     vdW  Elec       q    Type
REMARK                         _______ _______ _______ _____ _____    ______ ____
ROOT
ATOM      1  C   UNL     1       0.963  -0.564   2.382  0.00  0.00    +0.000 A 
ATOM      2  C   UNL     1       2.275  -1.068   2.603  0.00  0.00    +0.000 A 
ATOM      3  C   UNL     1       2.485  -2.026   3.608  0.00  0.00    +0.000 A 
ATOM      4  C   UNL     1       1.563  -2.247   4.499  0.00  0.00    +0.000 A 
ATOM      5  C   UNL     1       0.365  -1.522   4.465  0.00  0.00    +0.000 A 
ATOM      6  C   UNL     1       0.024  -0.789   3.302  0.00  0.00    +0.000 A 
ATOM      7  C   UNL     1       1.787  -3.293   5.580  0.00  0.00    +0.000 C 
ATOM      8  C   UNL     1       1.792  -2.521   6.861  0.00  0.00    +0.000 C 
ATOM      9  O   UNL     1       2.016  -1.271   6.911  0.00  0.00    +0.000 OA
ATOM     10  C   UNL     1       1.510  -3.341   8.075  0.00  0.00    +0.000 A 
ATOM     11  C   UNL     1       1.786  -2.840   9.343  0.00  0.00    +0.000 A 
ATOM     12  C   UNL     1       1.520  -3.604  10.464  0.00  0.00    +0.000 A 
ATOM     13  C   UNL     1       0.977  -4.868  10.315  0.00  0.00    +0.000 A 
ATOM     14  C   UNL     1       0.700  -5.378   9.037  0.00  0.00    +0.000 A 
ATOM     15  C   UNL     1       0.967  -4.613   7.903  0.00  0.00    +0.000 A 
ATOM     16  O   UNL     1       0.668  -5.177   6.546  0.00  0.00    +0.000 OA
ATOM     17  C   UNL     1       0.820  -4.251   5.484  0.00  0.00    +0.000 C 
ATOM     18  C   UNL     1      -0.480  -3.464   5.496  0.00  0.00    +0.000 C 
ATOM     19  O   UNL     1       3.703  -2.754   3.652  0.00  0.00    +0.000 OA
ATOM     20  C   UNL     1       0.128  -6.735   8.922  0.00  0.00    +0.000 C 
ATOM     21  C   UNL     1      -0.397  -7.319   9.992  0.00  0.00    +0.000 C 
ATOM     22  C   UNL     1      -0.433  -6.614  11.323  0.00  0.00    +0.000 C 
ATOM     23  C   UNL     1      -0.319  -7.643  12.436  0.00  0.00    +0.000 C 
ATOM     24  C   UNL     1      -1.744  -5.856  11.455  0.00  0.00    +0.000 C 
ATOM     25  O   UNL     1       0.687  -5.671  11.421  0.00  0.00    +0.000 OA
ENDROOT
BRANCH   1  27
ATOM     26  C   UNL     1       1.093   0.036   0.000  0.00  0.00    +0.000 C 
ATOM     27  O   UNL     1       0.620   0.304   1.312  0.00  0.00    +0.000 OA
ENDBRANCH   1  27
BRANCH   6  28
ATOM     28  O   UNL     1      -1.298  -0.302   3.118  0.00  0.00    +0.000 OA
ATOM     29  C   UNL     1      -1.627   0.432   1.948  0.00  0.00    +0.000 C 
ENDBRANCH   6  28
TORSDOF 2
