
 OpenBabel03132514253D

 19 18  0  0  0  0  0  0  0  0999 V2000
    0.9153   -0.0469    0.0249 C   0  0  0  0  0  0  0  0  0  0  0  0
    0.2351   -1.0880    0.5765 C   0  0  0  0  0  0  0  0  0  0  0  0
   -1.2849   -1.0880    0.5765 C   0  0  0  0  0  0  0  0  0  0  0  0
   -1.8882   -2.5338   -0.3299 S   0  0  0  0  0  0  0  0  0  0  0  0
   -1.1882   -2.4618   -2.3085 S   0  0  0  0  0  0  0  0  0  0  0  0
   -1.8882   -4.1393   -3.3602 S   0  0  0  0  0  0  0  0  0  0  0  0
   -1.2849   -4.0772   -5.0656 C   0  0  0  0  0  0  0  0  0  0  0  0
   -1.7916   -2.8109   -5.7365 C   0  0  0  0  0  0  0  0  0  0  0  0
   -0.9075   -1.8972   -6.2206 C   0  0  0  0  0  0  0  0  0  0  0  0
    0.3803    0.7719   -0.4089 H   0  0  0  0  0  0  0  0  0  0  0  0
    1.9853   -0.0469    0.0249 H   0  0  0  0  0  0  0  0  0  0  0  0
    0.7701   -1.9068    1.0103 H   0  0  0  0  0  0  0  0  0  0  0  0
   -1.6416   -1.1247    1.5846 H   0  0  0  0  0  0  0  0  0  0  0  0
   -1.6416   -0.1966    0.1042 H   0  0  0  0  0  0  0  0  0  0  0  0
   -0.2149   -4.0772   -5.0656 H   0  0  0  0  0  0  0  0  0  0  0  0
   -1.6416   -4.9319   -5.6014 H   0  0  0  0  0  0  0  0  0  0  0  0
   -2.8436   -2.6381   -5.8280 H   0  0  0  0  0  0  0  0  0  0  0  0
   -1.2642   -1.0058   -6.6928 H   0  0  0  0  0  0  0  0  0  0  0  0
    0.1444   -2.0700   -6.1290 H   0  0  0  0  0  0  0  0  0  0  0  0
  1  2  2  0  0  0  0
  1 10  1  0  0  0  0
  1 11  1  0  0  0  0
  2  3  1  0  0  0  0
  2 12  1  0  0  0  0
  3  4  1  0  0  0  0
  3 13  1  0  0  0  0
  3 14  1  0  0  0  0
  4  5  1  0  0  0  0
  5  6  1  0  0  0  0
  6  7  1  0  0  0  0
  7  8  1  0  0  0  0
  7 15  1  0  0  0  0
  7 16  1  0  0  0  0
  8  9  2  0  0  0  0
  8 17  1  0  0  0  0
  9 18  1  0  0  0  0
  9 19  1  0  0  0  0
M  END
