REMARK  Name = 
REMARK  6 active torsions:
REMARK  status: ('A' for Active; 'I' for Inactive)
REMARK    1  A    between atoms: C_2  and  C_3
REMARK    2  A    between atoms: C_3  and  S_4
REMARK    3  A    between atoms: S_4  and  S_5
REMARK    4  A    between atoms: S_5  and  S_6
REMARK    5  A    between atoms: S_6  and  C_7
REMARK    6  A    between atoms: C_7  and  C_8
REMARK                            x       y       z     vdW  Elec       q    Type
REMARK                         _______ _______ _______ _____ _____    ______ ____
ROOT
ATOM      1  S   UNL     1      -1.188  -2.462  -2.308  0.00  0.00    +0.000 S 
ENDROOT
BRANCH   1   2
ATOM      2  S   UNL     1      -1.888  -2.534  -0.330  0.00  0.00    +0.000 S 
BRANCH   2   3
ATOM      3  C   UNL     1      -1.285  -1.088   0.577  0.00  0.00    +0.000 C 
BRANCH   3   5
ATOM      4  C   UNL     1       0.915  -0.047   0.025  0.00  0.00    +0.000 C 
ATOM      5  C   UNL     1       0.235  -1.088   0.577  0.00  0.00    +0.000 C 
ENDBRANCH   3   5
ENDBRANCH   2   3
ENDBRANCH   1   2
BRANCH   1   6
ATOM      6  S   UNL     1      -1.888  -4.139  -3.360  0.00  0.00    +0.000 S 
BRANCH   6   7
ATOM      7  C   UNL     1      -1.285  -4.077  -5.066  0.00  0.00    +0.000 C 
BRANCH   7   8
ATOM      8  C   UNL     1      -1.792  -2.811  -5.737  0.00  0.00    +0.000 C 
ATOM      9  C   UNL     1      -0.907  -1.897  -6.221  0.00  0.00    +0.000 C 
ENDBRANCH   7   8
ENDBRANCH   6   7
ENDBRANCH   1   6
TORSDOF 6
