REMARK  Name = 
REMARK  6 active torsions:
REMARK  status: ('A' for Active; 'I' for Inactive)
REMARK    1  A    between atoms: C_2  and  C_3
REMARK    2  A    between atoms: C_3  and  S_4
REMARK    3  A    between atoms: S_4  and  S_5
REMARK    4  A    between atoms: S_5  and  S_6
REMARK    5  A    between atoms: S_6  and  C_7
REMARK    6  A    between atoms: C_7  and  C_8
REMARK                            x       y       z     vdW  Elec       q    Type
REMARK                         _______ _______ _______ _____ _____    ______ ____
ROOT
ATOM      1  S   UNL     1      -1.055  -2.108  -2.501  0.00  0.00    +0.000 S 
ENDROOT
BRANCH   1   2
ATOM      2  S   UNL     1      -1.755  -2.386  -0.541  0.00  0.00    +0.000 S 
BRANCH   2   3
ATOM      3  C   UNL     1      -1.151  -1.042   0.511  0.00  0.00    +0.000 C 
BRANCH   3   5
ATOM      4  C   UNL     1       1.049   0.051   0.071  0.00  0.00    +0.000 C 
ATOM      5  C   UNL     1       0.369  -1.042   0.511  0.00  0.00    +0.000 C 
ENDBRANCH   3   5
ENDBRANCH   2   3
ENDBRANCH   1   2
BRANCH   1   6
ATOM      6  S   UNL     1      -1.755  -3.667  -3.722  0.00  0.00    +0.000 S 
BRANCH   6   7
ATOM      7  C   UNL     1      -1.151  -3.428  -5.411  0.00  0.00    +0.000 C 
BRANCH   7   8
ATOM      8  C   UNL     1      -1.658  -2.099  -5.947  0.00  0.00    +0.000 C 
ATOM      9  C   UNL     1      -0.774  -1.139  -6.333  0.00  0.00    +0.000 C 
ENDBRANCH   7   8
ENDBRANCH   6   7
ENDBRANCH   1   6
TORSDOF 6
