REMARK  Name = 
REMARK  4 active torsions:
REMARK  status: ('A' for Active; 'I' for Inactive)
REMARK    1  A    between atoms: C_2  and  C_3
REMARK    2  A    between atoms: C_2  and  C_12
REMARK    3  A    between atoms: C_3  and  C_4
REMARK    4  A    between atoms: C_4  and  C_6
REMARK                            x       y       z     vdW  Elec       q    Type
REMARK                         _______ _______ _______ _____ _____    ______ ____
ROOT
ATOM      1  C   UNL     1       3.113   1.285   0.483  0.00  0.00    +0.000 C 
ENDROOT
BRANCH   1   3
ATOM      2  O   UNL     1       1.082   0.057   0.009  0.00  0.00    +0.000 OA
ATOM      3  C   UNL     1       2.353   0.057   0.009  0.00  0.00    +0.000 C 
BRANCH   3   4
ATOM      4  C   UNL     1       3.113  -1.171  -0.465  0.00  0.00    +0.000 A 
ATOM      5  C   UNL     1       4.162  -1.598   0.332  0.00  0.00    +0.000 A 
ATOM      6  C   UNL     1       4.988  -2.570  -0.280  0.00  0.00    +0.000 A 
ATOM      7  C   UNL     1       4.644  -3.291  -1.331  0.00  0.00    +0.000 A 
ATOM      8  C   UNL     1       3.558  -2.856  -2.038  0.00  0.00    +0.000 A 
ATOM      9  C   UNL     1       2.777  -1.826  -1.571  0.00  0.00    +0.000 A 
ENDBRANCH   3   4
ENDBRANCH   1   3
BRANCH   1  10
ATOM     10  C   UNL     1       3.987   0.912   1.670  0.00  0.00    +0.000 C 
ATOM     11  O   UNL     1       5.247   1.063   1.603  0.00  0.00    +0.000 OA
BRANCH  10  12
ATOM     12  C   UNL     1       3.353   0.360   2.937  0.00  0.00    +0.000 A 
ATOM     13  C   UNL     1       3.821   0.747   4.182  0.00  0.00    +0.000 A 
ATOM     14  C   UNL     1       3.446  -0.124   5.232  0.00  0.00    +0.000 A 
ATOM     15  C   UNL     1       2.466  -1.007   5.158  0.00  0.00    +0.000 A 
ATOM     16  C   UNL     1       2.001  -1.296   3.905  0.00  0.00    +0.000 A 
ATOM     17  C   UNL     1       2.420  -0.576   2.812  0.00  0.00    +0.000 A 
ENDBRANCH  10  12
ENDBRANCH   1  10
TORSDOF 4
