REMARK  Name = 
REMARK  8 active torsions:
REMARK  status: ('A' for Active; 'I' for Inactive)
REMARK    1  A    between atoms: C_1  and  C_2
REMARK    2  A    between atoms: C_2  and  C_3
REMARK    3  A    between atoms: C_3  and  C_4
REMARK    4  A    between atoms: C_4  and  SN_5
REMARK    5  A    between atoms: SN_5  and  C_6
REMARK    6  A    between atoms: C_6  and  C_7
REMARK    7  A    between atoms: C_7  and  C_8
REMARK    8  A    between atoms: C_8  and  C_9
REMARK                            x       y       z     vdW  Elec       q    Type
REMARK                         _______ _______ _______ _____ _____    ______ ____
ROOT
ATOM      1 SN   UNL     1      -1.688  -0.157  -2.861  0.00  0.00    +0.000 Sn
ENDROOT
BRANCH   1   2
ATOM      2  C   UNL     1       0.463  -0.157  -2.861  0.00  0.00    +0.000 C 
BRANCH   2   3
ATOM      3  C   UNL     1       0.969   1.099  -2.171  0.00  0.00    +0.000 C 
BRANCH   3   5
ATOM      4  C   UNL     1       0.969  -0.095   0.005  0.00  0.00    +0.000 C 
ATOM      5  C   UNL     1       0.463   1.130  -0.739  0.00  0.00    +0.000 C 
ENDBRANCH   3   5
ENDBRANCH   2   3
ENDBRANCH   1   2
BRANCH   1   6
ATOM      6  C   UNL     1      -2.404  -0.113  -0.834  0.00  0.00    +0.000 C 
BRANCH   6   7
ATOM      7  C   UNL     1      -1.897  -1.338  -0.091  0.00  0.00    +0.000 C 
BRANCH   7   8
ATOM      8  C   UNL     1      -0.378  -1.338  -0.091  0.00  0.00    +0.000 C 
ATOM      9  C   UNL     1       0.129  -0.082   0.599  0.00  0.00    +0.000 C 
ENDBRANCH   7   8
ENDBRANCH   6   7
ENDBRANCH   1   6
TORSDOF 6
