
 OpenBabel03132512093D

 40 41  0  0  0  0  0  0  0  0999 V2000
    1.0722   -0.0474   -0.0505 C   0  0  0  0  0  0  0  0  0  0  0  0
    0.5655   -1.4801   -0.0201 C   0  0  0  0  0  0  0  0  0  0  0  0
    1.0722   -2.1701    1.2360 C   0  0  0  0  0  0  0  0  0  0  0  0
    0.1881   -2.6680    2.1422 C   0  0  0  0  0  0  0  0  0  0  0  0
    0.6948   -3.3580    3.3982 C   0  0  0  0  0  0  0  0  0  0  0  0
    0.1881   -2.6153    4.6238 C   0  0  0  0  0  0  0  0  0  0  0  0
   -1.3063   -2.5343    1.8988 C   0  0  0  0  0  0  0  0  0  0  0  0
   -1.8270   -2.8142    0.6545 C   0  0  0  0  0  0  0  0  0  0  0  0
   -3.1999   -2.7107    0.4074 C   0  0  0  0  0  0  0  0  0  0  0  0
   -4.0296   -2.3279    1.4815 C   0  0  0  0  0  0  0  0  0  0  0  0
   -5.3708   -2.2248    1.3416 O   0  0  0  0  0  0  0  0  0  0  0  0
   -3.4948   -2.0225    2.7103 C   0  0  0  0  0  0  0  0  0  0  0  0
   -2.1340   -2.1352    2.9201 C   0  0  0  0  0  0  0  0  0  0  0  0
    2.5666   -2.3039    1.4794 C   0  0  0  0  0  0  0  0  0  0  0  0
    3.3959   -1.2244    1.2683 C   0  0  0  0  0  0  0  0  0  0  0  0
    4.7730   -1.3178    1.4951 C   0  0  0  0  0  0  0  0  0  0  0  0
    5.2755   -2.5493    1.9637 C   0  0  0  0  0  0  0  0  0  0  0  0
    6.5892   -2.7244    2.2329 O   0  0  0  0  0  0  0  0  0  0  0  0
    4.4423   -3.6277    2.1422 C   0  0  0  0  0  0  0  0  0  0  0  0
    3.0866   -3.5009    1.9086 C   0  0  0  0  0  0  0  0  0  0  0  0
    0.7155    0.4755    0.8123 H   0  0  0  0  0  0  0  0  0  0  0  0
    0.7155    0.4384   -0.9347 H   0  0  0  0  0  0  0  0  0  0  0  0
    2.1422   -0.0474   -0.0505 H   0  0  0  0  0  0  0  0  0  0  0  0
   -0.5045   -1.4801   -0.0201 H   0  0  0  0  0  0  0  0  0  0  0  0
    0.9222   -2.0030   -0.8828 H   0  0  0  0  0  0  0  0  0  0  0  0
    0.3381   -4.3666    3.4196 H   0  0  0  0  0  0  0  0  0  0  0  0
    1.7648   -3.3580    3.3982 H   0  0  0  0  0  0  0  0  0  0  0  0
   -0.8819   -2.6153    4.6238 H   0  0  0  0  0  0  0  0  0  0  0  0
    0.5448   -3.1010    5.5080 H   0  0  0  0  0  0  0  0  0  0  0  0
    0.5448   -1.6067    4.6024 H   0  0  0  0  0  0  0  0  0  0  0  0
   -1.1710   -3.1156   -0.1353 H   0  0  0  0  0  0  0  0  0  0  0  0
   -3.6058   -2.9147   -0.5614 H   0  0  0  0  0  0  0  0  0  0  0  0
   -5.7998   -2.4378    0.4637 H   0  0  0  0  0  0  0  0  0  0  0  0
   -4.1331   -1.6972    3.5051 H   0  0  0  0  0  0  0  0  0  0  0  0
   -1.7230   -1.9108    3.8821 H   0  0  0  0  0  0  0  0  0  0  0  0
    2.9802   -0.3000    0.9255 H   0  0  0  0  0  0  0  0  0  0  0  0
    5.4216   -0.4851    1.3194 H   0  0  0  0  0  0  0  0  0  0  0  0
    7.2292   -1.9649    2.1160 H   0  0  0  0  0  0  0  0  0  0  0  0
    4.8440   -4.5663    2.4624 H   0  0  0  0  0  0  0  0  0  0  0  0
    2.4389   -4.3385    2.0627 H   0  0  0  0  0  0  0  0  0  0  0  0
  1  2  1  0  0  0  0
  1 21  1  0  0  0  0
  1 22  1  0  0  0  0
  1 23  1  0  0  0  0
  2  3  1  0  0  0  0
  2 24  1  0  0  0  0
  2 25  1  0  0  0  0
  3  4  2  0  0  0  0
  3 14  1  0  0  0  0
  4  5  1  0  0  0  0
  4  7  1  0  0  0  0
  5  6  1  0  0  0  0
  5 26  1  0  0  0  0
  5 27  1  0  0  0  0
  6 28  1  0  0  0  0
  6 29  1  0  0  0  0
  6 30  1  0  0  0  0
  7  8  1  0  0  0  0
  7 13  2  0  0  0  0
  8  9  2  0  0  0  0
  8 31  1  0  0  0  0
  9 10  1  0  0  0  0
  9 32  1  0  0  0  0
 10 11  1  0  0  0  0
 10 12  2  0  0  0  0
 11 33  1  0  0  0  0
 12 13  1  0  0  0  0
 12 34  1  0  0  0  0
 13 35  1  0  0  0  0
 14 15  1  0  0  0  0
 14 20  2  0  0  0  0
 15 16  2  0  0  0  0
 15 36  1  0  0  0  0
 16 17  1  0  0  0  0
 16 37  1  0  0  0  0
 17 18  1  0  0  0  0
 17 19  2  0  0  0  0
 18 38  1  0  0  0  0
 19 20  1  0  0  0  0
 19 39  1  0  0  0  0
 20 40  1  0  0  0  0
M  END
