REMARK  Name = 
REMARK  8 active torsions:
REMARK  status: ('A' for Active; 'I' for Inactive)
REMARK    1  A    between atoms: C_1  and  C_2
REMARK    2  A    between atoms: C_2  and  C_3
REMARK    3  A    between atoms: C_3  and  C_14
REMARK    4  A    between atoms: C_4  and  C_5
REMARK    5  A    between atoms: C_4  and  C_7
REMARK    6  A    between atoms: C_5  and  C_6
REMARK    7  A    between atoms: C_10  and  O_11
REMARK    8  A    between atoms: C_17  and  O_18
REMARK                            x       y       z     vdW  Elec       q    Type
REMARK                         _______ _______ _______ _____ _____    ______ ____
ROOT
ATOM      1  C   UNL     1       1.072  -2.170   1.236  0.00  0.00    +0.000 C 
ATOM      2  C   UNL     1       0.188  -2.668   2.142  0.00  0.00    +0.000 C 
ENDROOT
BRANCH   2   3
ATOM      3  C   UNL     1      -1.306  -2.534   1.899  0.00  0.00    +0.000 A 
ATOM      4  C   UNL     1      -1.827  -2.814   0.654  0.00  0.00    +0.000 A 
ATOM      5  C   UNL     1      -3.200  -2.711   0.407  0.00  0.00    +0.000 A 
ATOM      6  C   UNL     1      -4.030  -2.328   1.482  0.00  0.00    +0.000 A 
ATOM      7  C   UNL     1      -3.495  -2.022   2.710  0.00  0.00    +0.000 A 
ATOM      8  C   UNL     1      -2.134  -2.135   2.920  0.00  0.00    +0.000 A 
BRANCH   6   9
ATOM      9  O   UNL     1      -5.371  -2.225   1.342  0.00  0.00    +0.000 OA
ATOM     10  H   UNL     1      -5.800  -2.438   0.464  0.00  0.00    +0.000 HD
ENDBRANCH   6   9
ENDBRANCH   2   3
BRANCH   1  11
ATOM     11  C   UNL     1       2.567  -2.304   1.479  0.00  0.00    +0.000 A 
ATOM     12  C   UNL     1       3.396  -1.224   1.268  0.00  0.00    +0.000 A 
ATOM     13  C   UNL     1       4.773  -1.318   1.495  0.00  0.00    +0.000 A 
ATOM     14  C   UNL     1       5.276  -2.549   1.964  0.00  0.00    +0.000 A 
ATOM     15  C   UNL     1       4.442  -3.628   2.142  0.00  0.00    +0.000 A 
ATOM     16  C   UNL     1       3.087  -3.501   1.909  0.00  0.00    +0.000 A 
BRANCH  14  17
ATOM     17  O   UNL     1       6.589  -2.724   2.233  0.00  0.00    +0.000 OA
ATOM     18  H   UNL     1       7.229  -1.965   2.116  0.00  0.00    +0.000 HD
ENDBRANCH  14  17
ENDBRANCH   1  11
BRANCH   1  20
ATOM     19  C   UNL     1       1.072  -0.047  -0.051  0.00  0.00    +0.000 C 
ATOM     20  C   UNL     1       0.566  -1.480  -0.020  0.00  0.00    +0.000 C 
ENDBRANCH   1  20
BRANCH   2  21
ATOM     21  C   UNL     1       0.695  -3.358   3.398  0.00  0.00    +0.000 C 
ATOM     22  C   UNL     1       0.188  -2.615   4.624  0.00  0.00    +0.000 C 
ENDBRANCH   2  21
TORSDOF 6
