
 OpenBabel03132512093D

 57 60  0  0  0  0  0  0  0  0999 V2000
    1.0294    0.0260   -0.0920 C   0  0  0  0  0  0  0  0  0  0  0  0
    0.5561    0.6998    1.0649 O   0  0  0  0  0  0  0  0  0  0  0  0
    0.8991    0.2196    2.3564 C   0  0  0  0  0  0  0  0  0  0  0  0
   -0.0677    0.2582    3.3516 C   0  0  0  0  0  0  0  0  0  0  0  0
    0.3059   -0.0758    4.6507 C   0  0  0  0  0  0  0  0  0  0  0  0
    1.6176   -0.4353    4.9184 C   0  0  0  0  0  0  0  0  0  0  0  0
    2.5812   -0.5000    3.9164 C   0  0  0  0  0  0  0  0  0  0  0  0
    2.2084   -0.1588    2.6401 C   0  0  0  0  0  0  0  0  0  0  0  0
    3.1704   -0.1922    1.5962 O   0  0  0  0  0  0  0  0  0  0  0  0
    4.5084   -0.5769    1.8757 C   0  0  0  0  0  0  0  0  0  0  0  0
    1.7865   -0.7170    6.3483 C   0  0  0  0  0  0  0  0  0  0  0  0
    2.8124   -1.0298    6.9269 O   0  0  0  0  0  0  0  0  0  0  0  0
    0.4233   -0.5091    7.0264 C   0  0  0  0  0  0  0  0  0  0  0  0
   -0.0389   -1.7622    7.7520 C   0  0  0  0  0  0  0  0  0  0  0  0
    0.9646   -2.1189    8.8365 C   0  0  0  0  0  0  0  0  0  0  0  0
    1.0481   -0.9475    9.8127 C   0  0  0  0  0  0  0  0  0  0  0  0
    1.6515    0.2692    9.1450 C   0  0  0  0  0  0  0  0  0  0  0  0
    2.9885   -0.0403    8.6222 N   0  0  0  0  0  0  0  0  0  0  0  0
    3.5755    1.1698    8.0289 C   0  0  0  0  0  0  0  0  0  0  0  0
    2.6893    1.6592    6.8951 C   0  0  0  0  0  0  0  0  0  0  0  0
    3.2178    1.6739    5.6149 C   0  0  0  0  0  0  0  0  0  0  0  0
    2.4104    2.3488    4.6690 C   0  0  0  0  0  0  0  0  0  0  0  0
    1.1314    2.6295    4.8407 C   0  0  0  0  0  0  0  0  0  0  0  0
    0.6532    2.5304    6.1178 C   0  0  0  0  0  0  0  0  0  0  0  0
    1.4271    2.0029    7.1232 C   0  0  0  0  0  0  0  0  0  0  0  0
    2.8811   -1.0813    7.6016 C   0  0  0  0  0  0  0  0  0  0  0  0
    2.3275   -2.3672    8.1927 C   0  0  0  0  0  0  0  0  0  0  0  0
   -0.5499   -0.1143    5.8961 C   0  0  0  0  0  0  0  0  0  0  0  0
    0.6728    0.5270   -0.9675 H   0  0  0  0  0  0  0  0  0  0  0  0
    0.6728   -0.9828   -0.0881 H   0  0  0  0  0  0  0  0  0  0  0  0
    2.0994    0.0260   -0.0920 H   0  0  0  0  0  0  0  0  0  0  0  0
   -1.0756    0.5378    3.1259 H   0  0  0  0  0  0  0  0  0  0  0  0
    3.5829   -0.8066    4.1343 H   0  0  0  0  0  0  0  0  0  0  0  0
    4.9299    0.0946    2.5942 H   0  0  0  0  0  0  0  0  0  0  0  0
    4.5187   -1.5721    2.2686 H   0  0  0  0  0  0  0  0  0  0  0  0
    5.0848   -0.5432    0.9748 H   0  0  0  0  0  0  0  0  0  0  0  0
    0.4845    0.2716    7.7555 H   0  0  0  0  0  0  0  0  0  0  0  0
   -0.9960   -1.5846    8.1962 H   0  0  0  0  0  0  0  0  0  0  0  0
   -0.1136   -2.5708    7.0553 H   0  0  0  0  0  0  0  0  0  0  0  0
    0.6628   -3.0028    9.3586 H   0  0  0  0  0  0  0  0  0  0  0  0
    0.0588   -0.7032   10.1392 H   0  0  0  0  0  0  0  0  0  0  0  0
    1.6577   -1.2285   10.6459 H   0  0  0  0  0  0  0  0  0  0  0  0
    1.0222    0.5652    8.3318 H   0  0  0  0  0  0  0  0  0  0  0  0
    1.7279    1.0616    9.8601 H   0  0  0  0  0  0  0  0  0  0  0  0
    3.6525    1.9320    8.7759 H   0  0  0  0  0  0  0  0  0  0  0  0
    4.5496    0.9438    7.6481 H   0  0  0  0  0  0  0  0  0  0  0  0
    4.1520    1.2165    5.3640 H   0  0  0  0  0  0  0  0  0  0  0  0
    2.8678    2.6527    3.7507 H   0  0  0  0  0  0  0  0  0  0  0  0
    0.5032    2.9190    4.0244 H   0  0  0  0  0  0  0  0  0  0  0  0
   -0.3379    2.8685    6.3375 H   0  0  0  0  0  0  0  0  0  0  0  0
    1.0089    1.8678    8.0988 H   0  0  0  0  0  0  0  0  0  0  0  0
    3.8575   -1.2780    7.2108 H   0  0  0  0  0  0  0  0  0  0  0  0
    2.2277   -0.7435    6.8245 H   0  0  0  0  0  0  0  0  0  0  0  0
    3.0039   -2.7221    8.9421 H   0  0  0  0  0  0  0  0  0  0  0  0
    2.2221   -3.0949    7.4154 H   0  0  0  0  0  0  0  0  0  0  0  0
   -1.3662   -0.8002    5.8060 H   0  0  0  0  0  0  0  0  0  0  0  0
   -0.9813    0.8460    6.0876 H   0  0  0  0  0  0  0  0  0  0  0  0
  1  2  1  0  0  0  0
  1 29  1  0  0  0  0
  1 30  1  0  0  0  0
  1 31  1  0  0  0  0
  2  3  1  0  0  0  0
  3  4  1  0  0  0  0
  3  8  2  0  0  0  0
  4  5  2  0  0  0  0
  4 32  1  0  0  0  0
  5  6  1  0  0  0  0
  5 28  1  0  0  0  0
  6  7  2  0  0  0  0
  6 11  1  0  0  0  0
  7  8  1  0  0  0  0
  7 33  1  0  0  0  0
  8  9  1  0  0  0  0
  9 10  1  0  0  0  0
 10 34  1  0  0  0  0
 10 35  1  0  0  0  0
 10 36  1  0  0  0  0
 11 12  2  0  0  0  0
 11 13  1  0  0  0  0
 13 14  1  0  0  0  0
 13 28  1  0  0  0  0
 13 37  1  0  0  0  0
 14 15  1  0  0  0  0
 14 38  1  0  0  0  0
 14 39  1  0  0  0  0
 15 16  1  0  0  0  0
 15 27  1  0  0  0  0
 15 40  1  0  0  0  0
 16 17  1  0  0  0  0
 16 41  1  0  0  0  0
 16 42  1  0  0  0  0
 17 18  1  0  0  0  0
 17 43  1  0  0  0  0
 17 44  1  0  0  0  0
 18 19  1  0  0  0  0
 18 26  1  0  0  0  0
 19 20  1  0  0  0  0
 19 45  1  0  0  0  0
 19 46  1  0  0  0  0
 20 21  1  0  0  0  0
 20 25  2  0  0  0  0
 21 22  2  0  0  0  0
 21 47  1  0  0  0  0
 22 23  1  0  0  0  0
 22 48  1  0  0  0  0
 23 24  2  0  0  0  0
 23 49  1  0  0  0  0
 24 25  1  0  0  0  0
 24 50  1  0  0  0  0
 25 51  1  0  0  0  0
 26 27  1  0  0  0  0
 26 52  1  0  0  0  0
 26 53  1  0  0  0  0
 27 54  1  0  0  0  0
 27 55  1  0  0  0  0
 28 56  1  0  0  0  0
 28 57  1  0  0  0  0
M  END
