REMARK  Name = 
REMARK  8 active torsions:
REMARK  status: ('A' for Active; 'I' for Inactive)
REMARK    1  A    between atoms: C_1  and  O_2
REMARK    2  A    between atoms: O_2  and  C_3
REMARK    3  A    between atoms: C_8  and  O_9
REMARK    4  A    between atoms: O_9  and  C_10
REMARK    5  A    between atoms: C_13  and  C_14
REMARK    6  A    between atoms: C_14  and  C_15
REMARK    7  A    between atoms: N_18  and  C_19
REMARK    8  A    between atoms: C_19  and  C_20
REMARK                            x       y       z     vdW  Elec       q    Type
REMARK                         _______ _______ _______ _____ _____    ______ ____
ROOT
ATOM      1  C   UNL     1       0.957  -0.717   2.301  0.00  0.00    +0.000 A 
ATOM      2  C   UNL     1      -0.009  -0.992   3.259  0.00  0.00    +0.000 A 
ATOM      3  C   UNL     1       0.361  -1.734   4.378  0.00  0.00    +0.000 A 
ATOM      4  C   UNL     1       1.668  -2.176   4.508  0.00  0.00    +0.000 A 
ATOM      5  C   UNL     1       2.630  -1.924   3.535  0.00  0.00    +0.000 A 
ATOM      6  C   UNL     1       2.261  -1.183   2.440  0.00  0.00    +0.000 A 
ATOM      7  C   UNL     1       1.834  -2.909   5.769  0.00  0.00    +0.000 C 
ATOM      8  O   UNL     1       2.857  -3.404   6.210  0.00  0.00    +0.000 OA
ATOM      9  C   UNL     1       0.474  -2.916   6.484  0.00  0.00    +0.000 C 
ATOM     10  C   UNL     1      -0.494  -2.164   5.547  0.00  0.00    +0.000 C 
ENDROOT
BRANCH   1  12
ATOM     11  C   UNL     1       1.087  -0.004  -0.049  0.00  0.00    +0.000 C 
ATOM     12  O   UNL     1       0.614   0.201   1.274  0.00  0.00    +0.000 OA
ENDBRANCH   1  12
BRANCH   6  13
ATOM     13  O   UNL     1       3.222  -0.887   1.438  0.00  0.00    +0.000 OA
ATOM     14  C   UNL     1       4.555  -1.357   1.571  0.00  0.00    +0.000 C 
ENDBRANCH   6  13
BRANCH   9  15
ATOM     15  C   UNL     1      -0.003  -4.331   6.766  0.00  0.00    +0.000 C 
BRANCH  15  16
ATOM     16  C   UNL     1       0.996  -5.032   7.671  0.00  0.00    +0.000 C 
ATOM     17  C   UNL     1       1.005  -4.158   8.923  0.00  0.00    +0.000 C 
ATOM     18  C   UNL     1       1.554  -2.781   8.616  0.00  0.00    +0.000 C 
ATOM     19  N   UNL     1       2.912  -2.879   8.066  0.00  0.00    +0.000 NA
ATOM     20  C   UNL     1       2.873  -3.618   6.805  0.00  0.00    +0.000 C 
ATOM     21  C   UNL     1       2.379  -5.038   7.022  0.00  0.00    +0.000 C 
BRANCH  19  22
ATOM     22  C   UNL     1       3.444  -1.530   7.828  0.00  0.00    +0.000 C 
BRANCH  22  23
ATOM     23  C   UNL     1       2.549  -0.800   6.840  0.00  0.00    +0.000 A 
ATOM     24  C   UNL     1       3.118  -0.459   5.623  0.00  0.00    +0.000 A 
ATOM     25  C   UNL     1       2.308   0.388   4.829  0.00  0.00    +0.000 A 
ATOM     26  C   UNL     1       1.012   0.566   5.007  0.00  0.00    +0.000 A 
ATOM     27  C   UNL     1       0.498   0.147   6.202  0.00  0.00    +0.000 A 
ATOM     28  C   UNL     1       1.264  -0.573   7.087  0.00  0.00    +0.000 A 
ENDBRANCH  22  23
ENDBRANCH  19  22
ENDBRANCH  15  16
ENDBRANCH   9  15
TORSDOF 6
