REMARK  Name = 
REMARK  8 active torsions:
REMARK  status: ('A' for Active; 'I' for Inactive)
REMARK    1  A    between atoms: C_1  and  O_2
REMARK    2  A    between atoms: O_2  and  C_3
REMARK    3  A    between atoms: C_8  and  O_9
REMARK    4  A    between atoms: O_9  and  C_10
REMARK    5  A    between atoms: C_13  and  C_14
REMARK    6  A    between atoms: C_14  and  C_15
REMARK    7  A    between atoms: N_18  and  C_19
REMARK    8  A    between atoms: C_19  and  C_20
REMARK                            x       y       z     vdW  Elec       q    Type
REMARK                         _______ _______ _______ _____ _____    ______ ____
ROOT
ATOM      1  C   UNL     1       0.899   0.220   2.356  0.00  0.00    +0.000 A 
ATOM      2  C   UNL     1      -0.068   0.258   3.352  0.00  0.00    +0.000 A 
ATOM      3  C   UNL     1       0.306  -0.076   4.651  0.00  0.00    +0.000 A 
ATOM      4  C   UNL     1       1.618  -0.435   4.918  0.00  0.00    +0.000 A 
ATOM      5  C   UNL     1       2.581  -0.500   3.916  0.00  0.00    +0.000 A 
ATOM      6  C   UNL     1       2.208  -0.159   2.640  0.00  0.00    +0.000 A 
ATOM      7  C   UNL     1       1.786  -0.717   6.348  0.00  0.00    +0.000 C 
ATOM      8  O   UNL     1       2.812  -1.030   6.927  0.00  0.00    +0.000 OA
ATOM      9  C   UNL     1       0.423  -0.509   7.026  0.00  0.00    +0.000 C 
ATOM     10  C   UNL     1      -0.550  -0.114   5.896  0.00  0.00    +0.000 C 
ENDROOT
BRANCH   1  12
ATOM     11  C   UNL     1       1.029   0.026  -0.092  0.00  0.00    +0.000 C 
ATOM     12  O   UNL     1       0.556   0.700   1.065  0.00  0.00    +0.000 OA
ENDBRANCH   1  12
BRANCH   6  13
ATOM     13  O   UNL     1       3.170  -0.192   1.596  0.00  0.00    +0.000 OA
ATOM     14  C   UNL     1       4.508  -0.577   1.876  0.00  0.00    +0.000 C 
ENDBRANCH   6  13
BRANCH   9  15
ATOM     15  C   UNL     1      -0.039  -1.762   7.752  0.00  0.00    +0.000 C 
BRANCH  15  16
ATOM     16  C   UNL     1       0.965  -2.119   8.836  0.00  0.00    +0.000 C 
ATOM     17  C   UNL     1       1.048  -0.948   9.813  0.00  0.00    +0.000 C 
ATOM     18  C   UNL     1       1.651   0.269   9.145  0.00  0.00    +0.000 C 
ATOM     19  N   UNL     1       2.989  -0.040   8.622  0.00  0.00    +0.000 NA
ATOM     20  C   UNL     1       2.881  -1.081   7.602  0.00  0.00    +0.000 C 
ATOM     21  C   UNL     1       2.328  -2.367   8.193  0.00  0.00    +0.000 C 
BRANCH  19  22
ATOM     22  C   UNL     1       3.575   1.170   8.029  0.00  0.00    +0.000 C 
BRANCH  22  23
ATOM     23  C   UNL     1       2.689   1.659   6.895  0.00  0.00    +0.000 A 
ATOM     24  C   UNL     1       3.218   1.674   5.615  0.00  0.00    +0.000 A 
ATOM     25  C   UNL     1       2.410   2.349   4.669  0.00  0.00    +0.000 A 
ATOM     26  C   UNL     1       1.131   2.630   4.841  0.00  0.00    +0.000 A 
ATOM     27  C   UNL     1       0.653   2.530   6.118  0.00  0.00    +0.000 A 
ATOM     28  C   UNL     1       1.427   2.003   7.123  0.00  0.00    +0.000 A 
ENDBRANCH  22  23
ENDBRANCH  19  22
ENDBRANCH  15  16
ENDBRANCH   9  15
TORSDOF 6
