
 OpenBabel03132512093D

 52 51  0  0  0  0  0  0  0  0999 V2000
    1.0172    0.0984   -0.0050 C   0  0  0  0  0  0  0  0  0  0  0  0
    0.5106   -1.0852   -0.8130 C   0  0  0  0  0  0  0  0  0  0  0  0
    1.0172   -2.3767   -0.1919 C   0  0  0  0  0  0  0  0  0  0  0  0
    0.1332   -3.3086    0.2561 C   0  0  0  0  0  0  0  0  0  0  0  0
    0.6398   -4.6001    0.8772 C   0  0  0  0  0  0  0  0  0  0  0  0
    0.1332   -4.7081    2.3062 C   0  0  0  0  0  0  0  0  0  0  0  0
   -0.6489   -5.7590    2.6730 C   0  0  0  0  0  0  0  0  0  0  0  0
   -1.1556   -5.8669    4.1020 C   0  0  0  0  0  0  0  0  0  0  0  0
   -2.6756   -5.8669    4.1020 C   0  0  0  0  0  0  0  0  0  0  0  0
   -3.3558   -6.9287    4.6125 C   0  0  0  0  0  0  0  0  0  0  0  0
   -4.8758   -6.9287    4.6125 C   0  0  0  0  0  0  0  0  0  0  0  0
   -5.3825   -8.1123    3.8045 C   0  0  0  0  0  0  0  0  0  0  0  0
   -6.1646   -9.0550    4.3963 C   0  0  0  0  0  0  0  0  0  0  0  0
   -6.6713  -10.2386    3.5884 C   0  0  0  0  0  0  0  0  0  0  0  0
   -6.1646  -11.5301    4.2094 C   0  0  0  0  0  0  0  0  0  0  0  0
   -7.0486  -12.4620    4.6575 C   0  0  0  0  0  0  0  0  0  0  0  0
   -6.5420  -13.7535    5.2785 C   0  0  0  0  0  0  0  0  0  0  0  0
   -7.0487  -13.8615    6.7075 C   0  0  0  0  0  0  0  0  0  0  0  0
   -8.5687  -13.8615    6.7075 C   0  0  0  0  0  0  0  0  0  0  0  0
   -9.0753  -15.0450    5.8995 C   0  0  0  0  0  0  0  0  0  0  0  0
   -9.8060  -15.9258    6.4524 O   0  0  0  0  0  0  0  0  0  0  0  0
   -8.7323  -15.1667    4.5269 O   0  0  0  0  0  0  0  0  0  0  0  0
    0.6606    0.0224    1.0010 H   0  0  0  0  0  0  0  0  0  0  0  0
    0.6606    1.0075   -0.4421 H   0  0  0  0  0  0  0  0  0  0  0  0
    2.0872    0.0984   -0.0050 H   0  0  0  0  0  0  0  0  0  0  0  0
   -0.5594   -1.0852   -0.8130 H   0  0  0  0  0  0  0  0  0  0  0  0
    0.8672   -1.0092   -1.8189 H   0  0  0  0  0  0  0  0  0  0  0  0
    2.0692   -2.5529   -0.1072 H   0  0  0  0  0  0  0  0  0  0  0  0
   -0.9188   -3.1324    0.1714 H   0  0  0  0  0  0  0  0  0  0  0  0
    0.2832   -5.4333    0.3084 H   0  0  0  0  0  0  0  0  0  0  0  0
    1.7098   -4.6001    0.8772 H   0  0  0  0  0  0  0  0  0  0  0  0
    0.3917   -3.9575    3.0236 H   0  0  0  0  0  0  0  0  0  0  0  0
   -0.9074   -6.5096    1.9556 H   0  0  0  0  0  0  0  0  0  0  0  0
   -0.7990   -6.7761    4.5391 H   0  0  0  0  0  0  0  0  0  0  0  0
   -0.7989   -5.0338    4.6707 H   0  0  0  0  0  0  0  0  0  0  0  0
   -3.2106   -5.0318    3.7004 H   0  0  0  0  0  0  0  0  0  0  0  0
   -2.8208   -7.7638    5.0141 H   0  0  0  0  0  0  0  0  0  0  0  0
   -5.2325   -7.0047    5.6185 H   0  0  0  0  0  0  0  0  0  0  0  0
   -5.2325   -6.0195    4.1754 H   0  0  0  0  0  0  0  0  0  0  0  0
   -5.1240   -8.2040    2.7703 H   0  0  0  0  0  0  0  0  0  0  0  0
   -6.4231   -8.9633    5.4306 H   0  0  0  0  0  0  0  0  0  0  0  0
   -7.7413  -10.2386    3.5884 H   0  0  0  0  0  0  0  0  0  0  0  0
   -6.3146  -10.1626    2.5824 H   0  0  0  0  0  0  0  0  0  0  0  0
   -5.1126  -11.7063    4.2941 H   0  0  0  0  0  0  0  0  0  0  0  0
   -8.1006  -12.2858    4.5727 H   0  0  0  0  0  0  0  0  0  0  0  0
   -6.8987  -14.5867    4.7097 H   0  0  0  0  0  0  0  0  0  0  0  0
   -5.4720  -13.7535    5.2785 H   0  0  0  0  0  0  0  0  0  0  0  0
   -6.6920  -14.7706    7.1446 H   0  0  0  0  0  0  0  0  0  0  0  0
   -6.6920  -13.0283    7.2762 H   0  0  0  0  0  0  0  0  0  0  0  0
   -8.9253  -13.9375    7.7134 H   0  0  0  0  0  0  0  0  0  0  0  0
   -8.9253  -12.9523    6.2703 H   0  0  0  0  0  0  0  0  0  0  0  0
   -9.0656  -15.9454    3.9954 H   0  0  0  0  0  0  0  0  0  0  0  0
  1  2  1  0  0  0  0
  1 23  1  0  0  0  0
  1 24  1  0  0  0  0
  1 25  1  0  0  0  0
  2  3  1  0  0  0  0
  2 26  1  0  0  0  0
  2 27  1  0  0  0  0
  3  4  2  0  0  0  0
  3 28  1  0  0  0  0
  4  5  1  0  0  0  0
  4 29  1  0  0  0  0
  5  6  1  0  0  0  0
  5 30  1  0  0  0  0
  5 31  1  0  0  0  0
  6  7  2  0  0  0  0
  6 32  1  0  0  0  0
  7  8  1  0  0  0  0
  7 33  1  0  0  0  0
  8  9  1  0  0  0  0
  8 34  1  0  0  0  0
  8 35  1  0  0  0  0
  9 10  2  0  0  0  0
  9 36  1  0  0  0  0
 10 11  1  0  0  0  0
 10 37  1  0  0  0  0
 11 12  1  0  0  0  0
 11 38  1  0  0  0  0
 11 39  1  0  0  0  0
 12 13  2  0  0  0  0
 12 40  1  0  0  0  0
 13 14  1  0  0  0  0
 13 41  1  0  0  0  0
 14 15  1  0  0  0  0
 14 42  1  0  0  0  0
 14 43  1  0  0  0  0
 15 16  2  0  0  0  0
 15 44  1  0  0  0  0
 16 17  1  0  0  0  0
 16 45  1  0  0  0  0
 17 18  1  0  0  0  0
 17 46  1  0  0  0  0
 17 47  1  0  0  0  0
 18 19  1  0  0  0  0
 18 48  1  0  0  0  0
 18 49  1  0  0  0  0
 19 20  1  0  0  0  0
 19 50  1  0  0  0  0
 19 51  1  0  0  0  0
 20 21  2  0  0  0  0
 20 22  1  0  0  0  0
 22 52  1  0  0  0  0
M  END
