REMARK  Name = 
REMARK  15 active torsions:
REMARK  status: ('A' for Active; 'I' for Inactive)
REMARK    1  A    between atoms: C_1  and  C_2
REMARK    2  A    between atoms: C_2  and  C_3
REMARK    3  A    between atoms: C_4  and  C_5
REMARK    4  A    between atoms: C_5  and  C_6
REMARK    5  A    between atoms: C_7  and  C_8
REMARK    6  A    between atoms: C_8  and  C_9
REMARK    7  A    between atoms: C_10  and  C_11
REMARK    8  A    between atoms: C_11  and  C_12
REMARK    9  A    between atoms: C_13  and  C_14
REMARK   10  A    between atoms: C_14  and  C_15
REMARK   11  A    between atoms: C_16  and  C_17
REMARK   12  A    between atoms: C_17  and  C_18
REMARK   13  A    between atoms: C_18  and  C_19
REMARK   14  A    between atoms: C_19  and  C_20
REMARK   15  A    between atoms: C_20  and  O_22
REMARK                            x       y       z     vdW  Elec       q    Type
REMARK                         _______ _______ _______ _____ _____    ______ ____
ROOT
ATOM      1  C   UNL     1      -5.383  -8.112   3.804  0.00  0.00    +0.000 C 
ATOM      2  C   UNL     1      -6.165  -9.055   4.396  0.00  0.00    +0.000 C 
ENDROOT
BRANCH   1   3
ATOM      3  C   UNL     1      -4.876  -6.929   4.612  0.00  0.00    +0.000 C 
BRANCH   3   5
ATOM      4  C   UNL     1      -2.676  -5.867   4.102  0.00  0.00    +0.000 C 
ATOM      5  C   UNL     1      -3.356  -6.929   4.612  0.00  0.00    +0.000 C 
BRANCH   4   6
ATOM      6  C   UNL     1      -1.156  -5.867   4.102  0.00  0.00    +0.000 C 
BRANCH   6   8
ATOM      7  C   UNL     1       0.133  -4.708   2.306  0.00  0.00    +0.000 C 
ATOM      8  C   UNL     1      -0.649  -5.759   2.673  0.00  0.00    +0.000 C 
BRANCH   7   9
ATOM      9  C   UNL     1       0.640  -4.600   0.877  0.00  0.00    +0.000 C 
BRANCH   9  11
ATOM     10  C   UNL     1       1.017  -2.377  -0.192  0.00  0.00    +0.000 C 
ATOM     11  C   UNL     1       0.133  -3.309   0.256  0.00  0.00    +0.000 C 
BRANCH  10  13
ATOM     12  C   UNL     1       1.017   0.098  -0.005  0.00  0.00    +0.000 C 
ATOM     13  C   UNL     1       0.511  -1.085  -0.813  0.00  0.00    +0.000 C 
ENDBRANCH  10  13
ENDBRANCH   9  11
ENDBRANCH   7   9
ENDBRANCH   6   8
ENDBRANCH   4   6
ENDBRANCH   3   5
ENDBRANCH   1   3
BRANCH   2  14
ATOM     14  C   UNL     1      -6.671 -10.239   3.588  0.00  0.00    +0.000 C 
BRANCH  14  15
ATOM     15  C   UNL     1      -6.165 -11.530   4.209  0.00  0.00    +0.000 C 
ATOM     16  C   UNL     1      -7.049 -12.462   4.657  0.00  0.00    +0.000 C 
BRANCH  16  17
ATOM     17  C   UNL     1      -6.542 -13.754   5.279  0.00  0.00    +0.000 C 
BRANCH  17  18
ATOM     18  C   UNL     1      -7.049 -13.861   6.707  0.00  0.00    +0.000 C 
BRANCH  18  19
ATOM     19  C   UNL     1      -8.569 -13.861   6.707  0.00  0.00    +0.000 C 
BRANCH  19  20
ATOM     20  C   UNL     1      -9.075 -15.045   5.899  0.00  0.00    +0.000 C 
ATOM     21  O   UNL     1      -9.806 -15.926   6.452  0.00  0.00    +0.000 OA
BRANCH  20  22
ATOM     22  O   UNL     1      -8.732 -15.167   4.527  0.00  0.00    +0.000 OA
ATOM     23  H   UNL     1      -9.066 -15.945   3.995  0.00  0.00    +0.000 HD
ENDBRANCH  20  22
ENDBRANCH  19  20
ENDBRANCH  18  19
ENDBRANCH  17  18
ENDBRANCH  16  17
ENDBRANCH  14  15
ENDBRANCH   2  14
TORSDOF 14
