REMARK  Name = 
REMARK  10 active torsions:
REMARK  status: ('A' for Active; 'I' for Inactive)
REMARK    1  A    between atoms: C_1  and  O_2
REMARK    2  A    between atoms: O_2  and  C_3
REMARK    3  A    between atoms: C_3  and  C_4
REMARK    4  A    between atoms: C_3  and  C_5
REMARK    5  A    between atoms: C_3  and  C_6
REMARK    6  A    between atoms: C_7  and  C_8
REMARK    7  A    between atoms: C_8  and  C_9
REMARK    8  A    between atoms: C_9  and  C_10
REMARK    9  A    between atoms: C_18  and  O_19
REMARK   10  A    between atoms: C_26  and  O_27
REMARK                            x       y       z     vdW  Elec       q    Type
REMARK                         _______ _______ _______ _____ _____    ______ ____
ROOT
ATOM      1  C   UNL     1      -0.736   5.697  -0.686  0.00  0.00    +0.000 C 
ATOM      2  C   UNL     1      -1.665   4.734  -0.577  0.00  0.00    +0.000 C 
ATOM      3  C   UNL     1      -1.256   3.495   0.062  0.00  0.00    +0.000 C 
ATOM      4  C   UNL     1      -2.364   3.004   0.958  0.00  0.00    +0.000 C 
ATOM      5  C   UNL     1      -1.087   7.011  -1.336  0.00  0.00    +0.000 C 
ATOM      6  C   UNL     1      -0.558   8.162  -0.478  0.00  0.00    +0.000 C 
ATOM      7  C   UNL     1      -1.693   8.718   0.380  0.00  0.00    +0.000 C 
ATOM      8  C   UNL     1      -1.398   8.442   1.855  0.00  0.00    +0.000 C 
ATOM      9  C   UNL     1      -2.699   8.086   2.576  0.00  0.00    +0.000 C 
ATOM     10  O   UNL     1      -2.382   7.606   3.994  0.00  0.00    +0.000 OA
ATOM     11  C   UNL     1      -3.201   6.350   4.302  0.00  0.00    +0.000 C 
ATOM     12  C   UNL     1      -2.450   5.132   3.827  0.00  0.00    +0.000 C 
ATOM     13  C   UNL     1      -2.984   4.342   2.929  0.00  0.00    +0.000 C 
ATOM     14  C   UNL     1      -2.233   3.124   2.455  0.00  0.00    +0.000 C 
ATOM     15  C   UNL     1      -4.540   6.430   3.587  0.00  0.00    +0.000 C 
ATOM     16  C   UNL     1      -4.308   6.529   2.087  0.00  0.00    +0.000 C 
ATOM     17  C   UNL     1      -5.647   6.610   1.373  0.00  0.00    +0.000 C 
ATOM     18  C   UNL     1      -6.404   7.838   1.851  0.00  0.00    +0.000 C 
ATOM     19  C   UNL     1      -0.280   9.408   2.212  0.00  0.00    +0.000 C 
ENDROOT
BRANCH   9  20
ATOM     20  O   UNL     1      -3.534   9.232   2.641  0.00  0.00    +0.000 OA
ATOM     21  H   UNL     1      -3.064   9.959   3.142  0.00  0.00    +0.000 HD
ENDBRANCH   9  20
BRANCH  16  22
ATOM     22  O   UNL     1      -3.601   5.382   1.641  0.00  0.00    +0.000 OA
ATOM     23  H   UNL     1      -2.720   5.329   2.111  0.00  0.00    +0.000 HD
ENDBRANCH  16  22
BRANCH   1  24
ATOM     24  C   UNL     1      -0.230   6.014   0.712  0.00  0.00    +0.000 C 
BRANCH  24  25
ATOM     25  C   UNL     1      -0.736   4.962   1.685  0.00  0.00    +0.000 C 
BRANCH  25  27
ATOM     26  C   UNL     1       0.552   2.866   2.103  0.00  0.00    +0.000 C 
ATOM     27  C   UNL     1      -0.230   3.594   1.260  0.00  0.00    +0.000 C 
BRANCH  26  28
ATOM     28  C   UNL     1       1.059   1.498   1.678  0.00  0.00    +0.000 C 
ATOM     29  C   UNL     1       0.552   0.446   2.651  0.00  0.00    +0.000 C 
ATOM     30  C   UNL     1       2.579   1.498   1.678  0.00  0.00    +0.000 C 
BRANCH  28  32
ATOM     31  C   UNL     1       1.059  -0.077  -0.024  0.00  0.00    +0.000 C 
ATOM     32  O   UNL     1       0.586   1.202   0.373  0.00  0.00    +0.000 OA
ENDBRANCH  28  32
ENDBRANCH  26  28
ENDBRANCH  25  27
ENDBRANCH  24  25
ENDBRANCH   1  24
TORSDOF 7
