
 OpenBabel03132512093D

 70 74  0  0  0  0  0  0  0  0999 V2000
    1.0590   -0.0771   -0.0239 C   0  0  0  0  0  0  0  0  0  0  0  0
    0.5857    1.2016    0.3727 O   0  0  0  0  0  0  0  0  0  0  0  0
    1.0590    1.4975    1.6783 C   0  0  0  0  0  0  0  0  0  0  0  0
    0.5524    0.4455    2.6515 C   0  0  0  0  0  0  0  0  0  0  0  0
    2.5790    1.4975    1.6783 C   0  0  0  0  0  0  0  0  0  0  0  0
    0.5524    2.8663    2.1028 C   0  0  0  0  0  0  0  0  0  0  0  0
   -0.2297    3.5935    1.2601 C   0  0  0  0  0  0  0  0  0  0  0  0
   -0.7364    4.9622    1.6847 C   0  0  0  0  0  0  0  0  0  0  0  0
   -0.2298    6.0142    0.7115 C   0  0  0  0  0  0  0  0  0  0  0  0
   -0.7364    5.6975   -0.6861 C   0  0  0  0  0  0  0  0  0  0  0  0
   -1.6645    4.7342   -0.5772 C   0  0  0  0  0  0  0  0  0  0  0  0
   -1.2562    3.4950    0.0624 C   0  0  0  0  0  0  0  0  0  0  0  0
   -2.3644    3.0042    0.9575 C   0  0  0  0  0  0  0  0  0  0  0  0
   -1.0869    7.0108   -1.3362 C   0  0  0  0  0  0  0  0  0  0  0  0
   -0.5577    8.1619   -0.4782 C   0  0  0  0  0  0  0  0  0  0  0  0
   -1.6927    8.7184    0.3796 C   0  0  0  0  0  0  0  0  0  0  0  0
   -1.3983    8.4418    1.8552 C   0  0  0  0  0  0  0  0  0  0  0  0
   -2.6994    8.0856    2.5764 C   0  0  0  0  0  0  0  0  0  0  0  0
   -3.5341    9.2325    2.6411 O   0  0  0  0  0  0  0  0  0  0  0  0
   -2.3817    7.6056    3.9937 O   0  0  0  0  0  0  0  0  0  0  0  0
   -3.2008    6.3498    4.3016 C   0  0  0  0  0  0  0  0  0  0  0  0
   -2.4503    5.1318    3.8274 C   0  0  0  0  0  0  0  0  0  0  0  0
   -2.9836    4.3417    2.9285 C   0  0  0  0  0  0  0  0  0  0  0  0
   -2.2333    3.1245    2.4549 C   0  0  0  0  0  0  0  0  0  0  0  0
   -4.5397    6.4302    3.5865 C   0  0  0  0  0  0  0  0  0  0  0  0
   -4.3084    6.5294    2.0875 C   0  0  0  0  0  0  0  0  0  0  0  0
   -3.6013    5.3819    1.6407 O   0  0  0  0  0  0  0  0  0  0  0  0
   -5.6473    6.6099    1.3725 C   0  0  0  0  0  0  0  0  0  0  0  0
   -6.4041    7.8382    1.8508 C   0  0  0  0  0  0  0  0  0  0  0  0
   -0.2801    9.4075    2.2122 C   0  0  0  0  0  0  0  0  0  0  0  0
    0.7024   -0.3000   -1.0078 H   0  0  0  0  0  0  0  0  0  0  0  0
    0.7024   -0.8176    0.6611 H   0  0  0  0  0  0  0  0  0  0  0  0
    2.1290   -0.0771   -0.0239 H   0  0  0  0  0  0  0  0  0  0  0  0
    0.9091   -0.5180    2.3526 H   0  0  0  0  0  0  0  0  0  0  0  0
    0.9091    0.6685    3.6353 H   0  0  0  0  0  0  0  0  0  0  0  0
   -0.5176    0.4455    2.6515 H   0  0  0  0  0  0  0  0  0  0  0  0
    2.9357    2.2381    0.9933 H   0  0  0  0  0  0  0  0  0  0  0  0
    2.9357    1.7205    2.6622 H   0  0  0  0  0  0  0  0  0  0  0  0
    2.9357    0.5340    1.3795 H   0  0  0  0  0  0  0  0  0  0  0  0
    0.8109    3.2578    3.0645 H   0  0  0  0  0  0  0  0  0  0  0  0
   -0.4882    3.2019    0.2985 H   0  0  0  0  0  0  0  0  0  0  0  0
   -1.8064    4.9622    1.6847 H   0  0  0  0  0  0  0  0  0  0  0  0
   -0.3797    5.1852    2.6685 H   0  0  0  0  0  0  0  0  0  0  0  0
   -0.5864    6.9778    1.0104 H   0  0  0  0  0  0  0  0  0  0  0  0
    0.8402    6.0142    0.7115 H   0  0  0  0  0  0  0  0  0  0  0  0
   -0.0315    5.2653   -1.3652 H   0  0  0  0  0  0  0  0  0  0  0  0
   -1.9025    4.4621   -1.5843 H   0  0  0  0  0  0  0  0  0  0  0  0
   -2.4811    5.1347   -0.0136 H   0  0  0  0  0  0  0  0  0  0  0  0
   -0.3758    3.6673    0.6457 H   0  0  0  0  0  0  0  0  0  0  0  0
   -1.0491    2.7586   -0.6857 H   0  0  0  0  0  0  0  0  0  0  0  0
   -3.0692    2.2008    1.0092 H   0  0  0  0  0  0  0  0  0  0  0  0
   -1.2741    7.5848   -2.2196 H   0  0  0  0  0  0  0  0  0  0  0  0
    0.2269    7.8042    0.1554 H   0  0  0  0  0  0  0  0  0  0  0  0
   -0.1778    8.9350   -1.1129 H   0  0  0  0  0  0  0  0  0  0  0  0
   -1.7737    9.7739    0.2234 H   0  0  0  0  0  0  0  0  0  0  0  0
   -2.6125    8.2459    0.1045 H   0  0  0  0  0  0  0  0  0  0  0  0
   -3.2027    7.3079    2.0409 H   0  0  0  0  0  0  0  0  0  0  0  0
   -3.0638    9.9593    3.1416 H   0  0  0  0  0  0  0  0  0  0  0  0
   -1.4815    4.9123    4.2250 H   0  0  0  0  0  0  0  0  0  0  0  0
   -3.9523    4.5611    2.5308 H   0  0  0  0  0  0  0  0  0  0  0  0
   -1.9946    2.1775    2.8920 H   0  0  0  0  0  0  0  0  0  0  0  0
   -5.1123    5.5523    3.8017 H   0  0  0  0  0  0  0  0  0  0  0  0
   -5.0725    7.2949    3.9232 H   0  0  0  0  0  0  0  0  0  0  0  0
   -3.7358    7.4074    1.8723 H   0  0  0  0  0  0  0  0  0  0  0  0
   -2.7205    5.3290    2.1111 H   0  0  0  0  0  0  0  0  0  0  0  0
   -5.4845    6.6797    0.3172 H   0  0  0  0  0  0  0  0  0  0  0  0
   -6.2199    5.7319    1.5877 H   0  0  0  0  0  0  0  0  0  0  0  0
   -7.3466    7.8948    1.3474 H   0  0  0  0  0  0  0  0  0  0  0  0
   -6.5670    7.7684    2.9060 H   0  0  0  0  0  0  0  0  0  0  0  0
   -0.5472   10.3947    1.8974 H   0  0  0  0  0  0  0  0  0  0  0  0
  1  2  1  0  0  0  0
  1 31  1  0  0  0  0
  1 32  1  0  0  0  0
  1 33  1  0  0  0  0
  2  3  1  0  0  0  0
  3  4  1  0  0  0  0
  3  5  1  0  0  0  0
  3  6  1  0  0  0  0
  4 34  1  0  0  0  0
  4 35  1  0  0  0  0
  4 36  1  0  0  0  0
  5 37  1  0  0  0  0
  5 38  1  0  0  0  0
  5 39  1  0  0  0  0
  6  7  2  0  0  0  0
  6 40  1  0  0  0  0
  7  8  1  0  0  0  0
  7 41  1  0  0  0  0
  8  9  1  0  0  0  0
  8 42  1  0  0  0  0
  8 43  1  0  0  0  0
  9 10  1  0  0  0  0
  9 44  1  0  0  0  0
  9 45  1  0  0  0  0
 10 11  1  0  0  0  0
 10 14  1  0  0  0  0
 10 46  1  0  0  0  0
 11 12  1  0  0  0  0
 11 47  1  0  0  0  0
 11 48  1  0  0  0  0
 12 13  1  0  0  0  0
 12 49  1  0  0  0  0
 12 50  1  0  0  0  0
 13 14  1  0  0  0  0
 13 24  1  0  0  0  0
 13 51  1  0  0  0  0
 14 15  1  0  0  0  0
 14 52  1  0  0  0  0
 15 16  1  0  0  0  0
 15 53  1  0  0  0  0
 15 54  1  0  0  0  0
 16 17  1  0  0  0  0
 16 55  1  0  0  0  0
 16 56  1  0  0  0  0
 17 18  1  0  0  0  0
 17 24  1  0  0  0  0
 17 30  1  0  0  0  0
 18 19  1  0  0  0  0
 18 20  1  0  0  0  0
 18 57  1  0  0  0  0
 19 58  1  0  0  0  0
 20 21  1  0  0  0  0
 21 22  1  0  0  0  0
 21 25  1  0  0  0  0
 21 30  1  0  0  0  0
 22 23  2  0  0  0  0
 22 59  1  0  0  0  0
 23 24  1  0  0  0  0
 23 60  1  0  0  0  0
 24 61  1  0  0  0  0
 25 26  1  0  0  0  0
 25 62  1  0  0  0  0
 25 63  1  0  0  0  0
 26 27  1  0  0  0  0
 26 28  1  0  0  0  0
 26 64  1  0  0  0  0
 27 65  1  0  0  0  0
 28 29  1  0  0  0  0
 28 66  1  0  0  0  0
 28 67  1  0  0  0  0
 29 30  1  0  0  0  0
 29 68  1  0  0  0  0
 29 69  1  0  0  0  0
 30 70  1  0  0  0  0
M  END
