REMARK  Name = 
REMARK  12 active torsions:
REMARK  status: ('A' for Active; 'I' for Inactive)
REMARK    1  A    between atoms: C_1  and  C_2
REMARK    2  A    between atoms: C_2  and  C_3
REMARK    3  A    between atoms: C_6  and  C_7
REMARK    4  A    between atoms: C_7  and  O_9
REMARK    5  A    between atoms: C_16  and  C_17
REMARK    6  A    between atoms: C_20  and  O_21
REMARK    7  A    between atoms: C_22  and  C_23
REMARK    8  A    between atoms: C_22  and  C_24
REMARK    9  A    between atoms: C_28  and  C_29
REMARK   10  A    between atoms: C_30  and  C_31
REMARK   11  A    between atoms: C_32  and  O_33
REMARK   12  A    between atoms: C_34  and  O_35
REMARK                            x       y       z     vdW  Elec       q    Type
REMARK                         _______ _______ _______ _____ _____    ______ ____
ROOT
ATOM      1  C   UNL     1       1.009   0.095  -0.031  0.00  0.00    +0.000 C 
ATOM      2  C   UNL     1       0.502   1.347   0.666  0.00  0.00    +0.000 C 
ATOM      3  C   UNL     1      -0.837   1.829   0.132  0.00  0.00    +0.000 C 
ATOM      4  C   UNL     1       0.342   1.084   2.086  0.00  0.00    +0.000 C 
ATOM      5  C   UNL     1      -0.914   0.980   2.548  0.00  0.00    +0.000 C 
ATOM      6  C   UNL     1      -1.159   0.710   4.010  0.00  0.00    +0.000 C 
ATOM      7  C   UNL     1       1.302   3.763   0.084  0.00  0.00    +0.000 C 
ATOM      8  C   UNL     1       1.619   2.338   0.463  0.00  0.00    +0.000 C 
ATOM      9  C   UNL     1       1.344   4.631   1.314  0.00  0.00    +0.000 C 
ATOM     10  C   UNL     1       0.418   5.538   1.509  0.00  0.00    +0.000 C 
ATOM     11  C   UNL     1       0.460   6.407   2.739  0.00  0.00    +0.000 C 
ATOM     12  C   UNL     1      -0.818   6.198   3.555  0.00  0.00    +0.000 C 
ATOM     13  C   UNL     1      -1.978   5.911   2.616  0.00  0.00    +0.000 C 
ATOM     14  C   UNL     1      -2.150   7.102   1.688  0.00  0.00    +0.000 C 
ATOM     15  C   UNL     1      -1.689   4.656   1.788  0.00  0.00    +0.000 C 
ATOM     16  C   UNL     1      -1.588   3.526   2.657  0.00  0.00    +0.000 C 
ATOM     17  C   UNL     1      -2.779   3.251   3.397  0.00  0.00    +0.000 C 
ATOM     18  C   UNL     1      -3.112   4.448   4.289  0.00  0.00    +0.000 C 
ATOM     19  C   UNL     1      -1.993   4.663   5.296  0.00  0.00    +0.000 C 
ATOM     20  C   UNL     1      -4.411   4.183   5.033  0.00  0.00    +0.000 C 
ATOM     21  C   UNL     1      -3.267   5.698   3.417  0.00  0.00    +0.000 C 
ATOM     22  C   UNL     1      -3.529   6.909   4.297  0.00  0.00    +0.000 C 
ATOM     23  C   UNL     1       0.593   4.214   4.080  0.00  0.00    +0.000 C 
ATOM     24  C   UNL     1      -0.626   5.015   4.506  0.00  0.00    +0.000 C 
ATOM     25  C   UNL     1      -0.424   5.531   5.922  0.00  0.00    +0.000 C 
ATOM     26  C   UNL     1      -1.866   4.120   4.462  0.00  0.00    +0.000 C 
ATOM     27  C   UNL     1      -3.374   4.246   4.600  0.00  0.00    +0.000 C 
ATOM     28  C   UNL     1      -1.594   2.834   5.245  0.00  0.00    +0.000 C 
ATOM     29  C   UNL     1      -2.246   1.654   4.527  0.00  0.00    +0.000 C 
ENDROOT
BRANCH   6  30
ATOM     30  C   UNL     1      -1.075  -0.366   5.080  0.00  0.00    +0.000 C 
ATOM     31  O   UNL     1      -0.660  -1.529   4.781  0.00  0.00    +0.000 OA
BRANCH  30  32
ATOM     32  O   UNL     1      -1.461  -0.071   6.415  0.00  0.00    +0.000 OA
ATOM     33  H   UNL     1      -1.406  -0.779   7.119  0.00  0.00    +0.000 HD
ENDBRANCH  30  32
ENDBRANCH   6  30
BRANCH  17  34
ATOM     34  O   UNL     1      -2.580   2.099   4.203  0.00  0.00    +0.000 OA
ATOM     35  H   UNL     1      -1.824   2.263   4.837  0.00  0.00    +0.000 HD
ENDBRANCH  17  34
BRANCH  28  36
ATOM     36  O   UNL     1      -2.136   2.952   6.553  0.00  0.00    +0.000 OA
ATOM     37  H   UNL     1      -3.123   3.103   6.492  0.00  0.00    +0.000 HD
ENDBRANCH  28  36
BRANCH  29  38
ATOM     38  O   UNL     1      -3.019   2.131   3.436  0.00  0.00    +0.000 OA
ATOM     39  H   UNL     1      -2.427   2.623   2.798  0.00  0.00    +0.000 HD
ENDBRANCH  29  38
TORSDOF 5
