
 OpenBabel03132512093D

 83 87  0  0  0  0  0  0  0  0999 V2000
    0.9835    0.0427   -0.0889 C   0  0  0  0  0  0  0  0  0  0  0  0
    0.4768   -0.4191   -1.4456 C   0  0  0  0  0  0  0  0  0  0  0  0
    1.6678   -0.3728   -2.3889 C   0  0  0  0  0  0  0  0  0  0  0  0
   -0.0357   -1.7766   -1.3685 C   0  0  0  0  0  0  0  0  0  0  0  0
    0.8037   -2.7647   -1.7150 C   0  0  0  0  0  0  0  0  0  0  0  0
    0.3423   -4.1981   -1.6621 C   0  0  0  0  0  0  0  0  0  0  0  0
   -0.0030   -5.3320   -0.7106 C   0  0  0  0  0  0  0  0  0  0  0  0
    0.0813   -5.1557    0.5452 O   0  0  0  0  0  0  0  0  0  0  0  0
   -0.4197   -6.5883   -1.2249 O   0  0  0  0  0  0  0  0  0  0  0  0
   -0.4795    1.0018   -3.4160 C   0  0  0  0  0  0  0  0  0  0  0  0
   -0.5894    0.4883   -2.0024 C   0  0  0  0  0  0  0  0  0  0  0  0
   -1.3382    0.1609   -4.3239 C   0  0  0  0  0  0  0  0  0  0  0  0
   -0.8834   -0.2146   -5.4938 C   0  0  0  0  0  0  0  0  0  0  0  0
   -1.7423   -1.0559   -6.4025 C   0  0  0  0  0  0  0  0  0  0  0  0
   -1.0360   -2.3838   -6.6867 C   0  0  0  0  0  0  0  0  0  0  0  0
    0.4677   -2.1632   -6.7123 C   0  0  0  0  0  0  0  0  0  0  0  0
    0.6920   -1.2306   -7.8914 C   0  0  0  0  0  0  0  0  0  0  0  0
    0.9505   -1.5171   -5.4116 C   0  0  0  0  0  0  0  0  0  0  0  0
    0.8466   -2.4616   -4.3440 C   0  0  0  0  0  0  0  0  0  0  0  0
    1.6398   -3.6361   -4.5254 C   0  0  0  0  0  0  0  0  0  0  0  0
    1.4846   -4.4907   -3.4020 O   0  0  0  0  0  0  0  0  0  0  0  0
    1.1849   -4.3679   -5.7903 C   0  0  0  0  0  0  0  0  0  0  0  0
   -0.2585   -4.8169   -5.6302 C   0  0  0  0  0  0  0  0  0  0  0  0
    2.0661   -5.5851   -6.0185 C   0  0  0  0  0  0  0  0  0  0  0  0
    1.2998   -3.4198   -6.9881 C   0  0  0  0  0  0  0  0  0  0  0  0
    0.7860   -4.1109   -8.2406 C   0  0  0  0  0  0  0  0  0  0  0  0
   -1.9945   -2.6591   -4.4050 C   0  0  0  0  0  0  0  0  0  0  0  0
   -1.3856   -3.3911   -5.5899 C   0  0  0  0  0  0  0  0  0  0  0  0
   -2.3852   -4.4011   -6.1294 C   0  0  0  0  0  0  0  0  0  0  0  0
   -0.1165   -4.1186   -5.1425 C   0  0  0  0  0  0  0  0  0  0  0  0
    1.0396   -4.8880   -5.7603 C   0  0  0  0  0  0  0  0  0  0  0  0
   -0.4244   -4.9686   -3.9083 C   0  0  0  0  0  0  0  0  0  0  0  0
   -0.6547   -6.3127   -4.3041 O   0  0  0  0  0  0  0  0  0  0  0  0
    0.7612   -4.9164   -2.9465 C   0  0  0  0  0  0  0  0  0  0  0  0
    1.8349   -4.2136   -3.5546 O   0  0  0  0  0  0  0  0  0  0  0  0
    0.6268   -0.6218    0.6701 H   0  0  0  0  0  0  0  0  0  0  0  0
    0.6269    1.0323    0.1071 H   0  0  0  0  0  0  0  0  0  0  0  0
    2.0535    0.0427   -0.0889 H   0  0  0  0  0  0  0  0  0  0  0  0
    2.0429    0.6279   -2.4410 H   0  0  0  0  0  0  0  0  0  0  0  0
    2.4359   -1.0232   -2.0258 H   0  0  0  0  0  0  0  0  0  0  0  0
    1.3629   -0.6906   -3.3641 H   0  0  0  0  0  0  0  0  0  0  0  0
   -0.2419   -1.9376   -0.3310 H   0  0  0  0  0  0  0  0  0  0  0  0
   -0.8885   -1.8368   -2.0121 H   0  0  0  0  0  0  0  0  0  0  0  0
    1.5599   -2.7216   -0.9592 H   0  0  0  0  0  0  0  0  0  0  0  0
    1.1055   -2.5743   -2.7238 H   0  0  0  0  0  0  0  0  0  0  0  0
   -0.6469   -7.3344   -0.5989 H   0  0  0  0  0  0  0  0  0  0  0  0
   -0.2160    1.9793   -3.7624 H   0  0  0  0  0  0  0  0  0  0  0  0
   -0.4921    1.3744   -1.4106 H   0  0  0  0  0  0  0  0  0  0  0  0
   -1.5140   -0.0464   -1.9391 H   0  0  0  0  0  0  0  0  0  0  0  0
    0.0984    0.0762   -5.8042 H   0  0  0  0  0  0  0  0  0  0  0  0
   -1.9055   -0.5346   -7.3226 H   0  0  0  0  0  0  0  0  0  0  0  0
   -2.6827   -1.2463   -5.9290 H   0  0  0  0  0  0  0  0  0  0  0  0
   -1.3566   -2.7628   -7.6346 H   0  0  0  0  0  0  0  0  0  0  0  0
    0.3409   -1.6979   -8.7876 H   0  0  0  0  0  0  0  0  0  0  0  0
    0.1564   -0.3182   -7.7315 H   0  0  0  0  0  0  0  0  0  0  0  0
    1.7367   -1.0192   -7.9852 H   0  0  0  0  0  0  0  0  0  0  0  0
    1.9705   -1.2132   -5.5213 H   0  0  0  0  0  0  0  0  0  0  0  0
    0.3456   -0.6624   -5.1918 H   0  0  0  0  0  0  0  0  0  0  0  0
   -0.1743   -2.7805   -4.3122 H   0  0  0  0  0  0  0  0  0  0  0  0
    1.1581   -1.9821   -3.4396 H   0  0  0  0  0  0  0  0  0  0  0  0
    2.6689   -3.3599   -4.6236 H   0  0  0  0  0  0  0  0  0  0  0  0
    0.5229   -4.7489   -3.3100 H   0  0  0  0  0  0  0  0  0  0  0  0
   -0.5738   -5.3267   -6.5165 H   0  0  0  0  0  0  0  0  0  0  0  0
   -0.3356   -5.4776   -4.7921 H   0  0  0  0  0  0  0  0  0  0  0  0
   -0.8820   -3.9624   -5.4692 H   0  0  0  0  0  0  0  0  0  0  0  0
    3.0829   -5.2727   -6.1343 H   0  0  0  0  0  0  0  0  0  0  0  0
    1.9888   -6.2439   -5.1789 H   0  0  0  0  0  0  0  0  0  0  0  0
    1.7470   -6.0957   -6.9030 H   0  0  0  0  0  0  0  0  0  0  0  0
    2.3243   -3.1470   -7.1324 H   0  0  0  0  0  0  0  0  0  0  0  0
    1.3685   -4.9886   -8.4282 H   0  0  0  0  0  0  0  0  0  0  0  0
   -0.2387   -4.3859   -8.1013 H   0  0  0  0  0  0  0  0  0  0  0  0
   -2.8821   -2.1502   -4.7180 H   0  0  0  0  0  0  0  0  0  0  0  0
   -2.2390   -3.3637   -3.6378 H   0  0  0  0  0  0  0  0  0  0  0  0
   -2.6297   -5.1057   -5.3621 H   0  0  0  0  0  0  0  0  0  0  0  0
   -3.2729   -3.8922   -6.4423 H   0  0  0  0  0  0  0  0  0  0  0  0
   -1.9567   -4.9165   -6.9634 H   0  0  0  0  0  0  0  0  0  0  0  0
    1.1557   -4.5967   -6.7833 H   0  0  0  0  0  0  0  0  0  0  0  0
    1.9395   -4.6713   -5.2235 H   0  0  0  0  0  0  0  0  0  0  0  0
    0.8376   -5.9374   -5.7089 H   0  0  0  0  0  0  0  0  0  0  0  0
   -1.2967   -4.5865   -3.4204 H   0  0  0  0  0  0  0  0  0  0  0  0
    0.1603   -6.6702   -4.7601 H   0  0  0  0  0  0  0  0  0  0  0  0
    1.0752   -5.9122   -2.7124 H   0  0  0  0  0  0  0  0  0  0  0  0
    1.5423   -3.2828   -3.7737 H   0  0  0  0  0  0  0  0  0  0  0  0
  1  2  1  0  0  0  0
  1 36  1  0  0  0  0
  1 37  1  0  0  0  0
  1 38  1  0  0  0  0
  2  3  1  0  0  0  0
  2  4  1  0  0  0  0
  2 11  1  0  0  0  0
  3 39  1  0  0  0  0
  3 40  1  0  0  0  0
  3 41  1  0  0  0  0
  4  5  1  0  0  0  0
  4 42  1  0  0  0  0
  4 43  1  0  0  0  0
  5  6  1  0  0  0  0
  5 44  1  0  0  0  0
  5 45  1  0  0  0  0
  6  7  1  0  0  0  0
  6 10  1  0  0  0  0
  6 34  1  0  0  0  0
  7  8  2  0  0  0  0
  7  9  1  0  0  0  0
  9 46  1  0  0  0  0
 10 11  1  0  0  0  0
 10 12  1  0  0  0  0
 10 47  1  0  0  0  0
 11 48  1  0  0  0  0
 11 49  1  0  0  0  0
 12 13  2  0  0  0  0
 12 30  1  0  0  0  0
 13 14  1  0  0  0  0
 13 50  1  0  0  0  0
 14 15  1  0  0  0  0
 14 51  1  0  0  0  0
 14 52  1  0  0  0  0
 15 16  1  0  0  0  0
 15 28  1  0  0  0  0
 15 53  1  0  0  0  0
 16 17  1  0  0  0  0
 16 18  1  0  0  0  0
 16 25  1  0  0  0  0
 17 54  1  0  0  0  0
 17 55  1  0  0  0  0
 17 56  1  0  0  0  0
 18 19  1  0  0  0  0
 18 57  1  0  0  0  0
 18 58  1  0  0  0  0
 19 20  1  0  0  0  0
 19 59  1  0  0  0  0
 19 60  1  0  0  0  0
 20 21  1  0  0  0  0
 20 22  1  0  0  0  0
 20 61  1  0  0  0  0
 21 62  1  0  0  0  0
 22 23  1  0  0  0  0
 22 24  1  0  0  0  0
 22 25  1  0  0  0  0
 23 63  1  0  0  0  0
 23 64  1  0  0  0  0
 23 65  1  0  0  0  0
 24 66  1  0  0  0  0
 24 67  1  0  0  0  0
 24 68  1  0  0  0  0
 25 26  1  0  0  0  0
 25 69  1  0  0  0  0
 26 27  1  0  0  0  0
 26 70  1  0  0  0  0
 26 71  1  0  0  0  0
 27 28  1  0  0  0  0
 27 72  1  0  0  0  0
 27 73  1  0  0  0  0
 28 29  1  0  0  0  0
 28 30  1  0  0  0  0
 29 74  1  0  0  0  0
 29 75  1  0  0  0  0
 29 76  1  0  0  0  0
 30 31  1  0  0  0  0
 30 32  1  0  0  0  0
 31 77  1  0  0  0  0
 31 78  1  0  0  0  0
 31 79  1  0  0  0  0
 32 33  1  0  0  0  0
 32 34  1  0  0  0  0
 32 80  1  0  0  0  0
 33 81  1  0  0  0  0
 34 35  1  0  0  0  0
 34 82  1  0  0  0  0
 35 83  1  0  0  0  0
M  END
