REMARK  Name = 
REMARK  12 active torsions:
REMARK  status: ('A' for Active; 'I' for Inactive)
REMARK    1  A    between atoms: C_1  and  C_2
REMARK    2  A    between atoms: C_2  and  C_3
REMARK    3  A    between atoms: C_6  and  C_7
REMARK    4  A    between atoms: C_7  and  O_9
REMARK    5  A    between atoms: C_16  and  C_17
REMARK    6  A    between atoms: C_20  and  O_21
REMARK    7  A    between atoms: C_22  and  C_23
REMARK    8  A    between atoms: C_22  and  C_24
REMARK    9  A    between atoms: C_28  and  C_29
REMARK   10  A    between atoms: C_30  and  C_31
REMARK   11  A    between atoms: C_32  and  O_33
REMARK   12  A    between atoms: C_34  and  O_35
REMARK                            x       y       z     vdW  Elec       q    Type
REMARK                         _______ _______ _______ _____ _____    ______ ____
ROOT
ATOM      1  C   UNL     1       0.984   0.043  -0.089  0.00  0.00    +0.000 C 
ATOM      2  C   UNL     1       0.477  -0.419  -1.446  0.00  0.00    +0.000 C 
ATOM      3  C   UNL     1       1.668  -0.373  -2.389  0.00  0.00    +0.000 C 
ATOM      4  C   UNL     1      -0.036  -1.777  -1.369  0.00  0.00    +0.000 C 
ATOM      5  C   UNL     1       0.804  -2.765  -1.715  0.00  0.00    +0.000 C 
ATOM      6  C   UNL     1       0.342  -4.198  -1.662  0.00  0.00    +0.000 C 
ATOM      7  C   UNL     1      -0.479   1.002  -3.416  0.00  0.00    +0.000 C 
ATOM      8  C   UNL     1      -0.589   0.488  -2.002  0.00  0.00    +0.000 C 
ATOM      9  C   UNL     1      -1.338   0.161  -4.324  0.00  0.00    +0.000 C 
ATOM     10  C   UNL     1      -0.883  -0.215  -5.494  0.00  0.00    +0.000 C 
ATOM     11  C   UNL     1      -1.742  -1.056  -6.402  0.00  0.00    +0.000 C 
ATOM     12  C   UNL     1      -1.036  -2.384  -6.687  0.00  0.00    +0.000 C 
ATOM     13  C   UNL     1       0.468  -2.163  -6.712  0.00  0.00    +0.000 C 
ATOM     14  C   UNL     1       0.692  -1.231  -7.891  0.00  0.00    +0.000 C 
ATOM     15  C   UNL     1       0.951  -1.517  -5.412  0.00  0.00    +0.000 C 
ATOM     16  C   UNL     1       0.847  -2.462  -4.344  0.00  0.00    +0.000 C 
ATOM     17  C   UNL     1       1.640  -3.636  -4.525  0.00  0.00    +0.000 C 
ATOM     18  C   UNL     1       1.185  -4.368  -5.790  0.00  0.00    +0.000 C 
ATOM     19  C   UNL     1      -0.259  -4.817  -5.630  0.00  0.00    +0.000 C 
ATOM     20  C   UNL     1       2.066  -5.585  -6.019  0.00  0.00    +0.000 C 
ATOM     21  C   UNL     1       1.300  -3.420  -6.988  0.00  0.00    +0.000 C 
ATOM     22  C   UNL     1       0.786  -4.111  -8.241  0.00  0.00    +0.000 C 
ATOM     23  C   UNL     1      -1.994  -2.659  -4.405  0.00  0.00    +0.000 C 
ATOM     24  C   UNL     1      -1.386  -3.391  -5.590  0.00  0.00    +0.000 C 
ATOM     25  C   UNL     1      -2.385  -4.401  -6.129  0.00  0.00    +0.000 C 
ATOM     26  C   UNL     1      -0.117  -4.119  -5.143  0.00  0.00    +0.000 C 
ATOM     27  C   UNL     1       1.040  -4.888  -5.760  0.00  0.00    +0.000 C 
ATOM     28  C   UNL     1      -0.424  -4.969  -3.908  0.00  0.00    +0.000 C 
ATOM     29  C   UNL     1       0.761  -4.916  -2.946  0.00  0.00    +0.000 C 
ENDROOT
BRANCH   6  30
ATOM     30  C   UNL     1      -0.003  -5.332  -0.711  0.00  0.00    +0.000 C 
ATOM     31  O   UNL     1       0.081  -5.156   0.545  0.00  0.00    +0.000 OA
BRANCH  30  32
ATOM     32  O   UNL     1      -0.420  -6.588  -1.225  0.00  0.00    +0.000 OA
ATOM     33  H   UNL     1      -0.647  -7.334  -0.599  0.00  0.00    +0.000 HD
ENDBRANCH  30  32
ENDBRANCH   6  30
BRANCH  17  34
ATOM     34  O   UNL     1       1.485  -4.491  -3.402  0.00  0.00    +0.000 OA
ATOM     35  H   UNL     1       0.523  -4.749  -3.310  0.00  0.00    +0.000 HD
ENDBRANCH  17  34
BRANCH  28  36
ATOM     36  O   UNL     1      -0.655  -6.313  -4.304  0.00  0.00    +0.000 OA
ATOM     37  H   UNL     1       0.160  -6.670  -4.760  0.00  0.00    +0.000 HD
ENDBRANCH  28  36
BRANCH  29  38
ATOM     38  O   UNL     1       1.835  -4.214  -3.555  0.00  0.00    +0.000 OA
ATOM     39  H   UNL     1       1.542  -3.283  -3.774  0.00  0.00    +0.000 HD
ENDBRANCH  29  38
TORSDOF 5
