
 OpenBabel03132514253D

 19 20  0  0  0  0  0  0  0  0999 V2000
    1.0608    0.0613   -0.0505 O   0  0  0  0  0  0  0  0  0  0  0  0
    2.3317    0.0613   -0.0505 C   0  0  0  0  0  0  0  0  0  0  0  0
    3.0169    1.2376   -0.2516 C   0  0  0  0  0  0  0  0  0  0  0  0
    4.3367    1.3191    0.2537 C   0  0  0  0  0  0  0  0  0  0  0  0
    5.0659    0.1361    0.2134 C   0  0  0  0  0  0  0  0  0  0  0  0
    6.3852    0.1091    0.2299 C   0  0  0  0  0  0  0  0  0  0  0  0
    7.0281   -1.0454    0.1846 C   0  0  0  0  0  0  0  0  0  0  0  0
    8.4480   -1.0414    0.2037 O   0  0  0  0  0  0  0  0  0  0  0  0
    6.3954   -2.1995    0.1223 C   0  0  0  0  0  0  0  0  0  0  0  0
    7.1486   -3.4024    0.0743 O   0  0  0  0  0  0  0  0  0  0  0  0
    5.0686   -2.2631    0.1033 C   0  0  0  0  0  0  0  0  0  0  0  0
    4.3478   -1.0748    0.1512 C   0  0  0  0  0  0  0  0  0  0  0  0
    2.9804   -1.0524    0.1400 O   0  0  0  0  0  0  0  0  0  0  0  0
    2.5691    2.0595   -0.7702 H   0  0  0  0  0  0  0  0  0  0  0  0
    4.7454    2.2292    0.6405 H   0  0  0  0  0  0  0  0  0  0  0  0
    6.9366    1.0247    0.2801 H   0  0  0  0  0  0  0  0  0  0  0  0
    8.9509   -1.9051    0.1701 H   0  0  0  0  0  0  0  0  0  0  0  0
    8.1479   -3.3674    0.0879 H   0  0  0  0  0  0  0  0  0  0  0  0
    4.5663   -3.2065    0.0525 H   0  0  0  0  0  0  0  0  0  0  0  0
  1  2  2  0  0  0  0
  2  3  1  0  0  0  0
  2 13  1  0  0  0  0
  3  4  2  0  0  0  0
  3 14  1  0  0  0  0
  4  5  1  0  0  0  0
  4 15  1  0  0  0  0
  5  6  1  0  0  0  0
  5 12  2  0  0  0  0
  6  7  2  0  0  0  0
  6 16  1  0  0  0  0
  7  8  1  0  0  0  0
  7  9  1  0  0  0  0
  8 17  1  0  0  0  0
  9 10  1  0  0  0  0
  9 11  2  0  0  0  0
 10 18  1  0  0  0  0
 11 12  1  0  0  0  0
 11 19  1  0  0  0  0
 12 13  1  0  0  0  0
M  END
