REMARK  Name = 
REMARK  2 active torsions:
REMARK  status: ('A' for Active; 'I' for Inactive)
REMARK    1  A    between atoms: C_7  and  O_8
REMARK    2  A    between atoms: C_9  and  O_10
REMARK                            x       y       z     vdW  Elec       q    Type
REMARK                         _______ _______ _______ _____ _____    ______ ____
ROOT
ATOM      1  O   UNL     1       1.066   0.062  -0.041  0.00  0.00    +0.000 OA
ATOM      2  C   UNL     1       2.337   0.062  -0.041  0.00  0.00    +0.000 A 
ATOM      3  C   UNL     1       3.022   1.239  -0.242  0.00  0.00    +0.000 A 
ATOM      4  C   UNL     1       4.342   1.320   0.263  0.00  0.00    +0.000 A 
ATOM      5  C   UNL     1       5.071   0.137   0.223  0.00  0.00    +0.000 A 
ATOM      6  C   UNL     1       6.391   0.110   0.239  0.00  0.00    +0.000 A 
ATOM      7  C   UNL     1       7.034  -1.044   0.194  0.00  0.00    +0.000 A 
ATOM      8  C   UNL     1       6.401  -2.198   0.131  0.00  0.00    +0.000 A 
ATOM      9  C   UNL     1       5.074  -2.262   0.112  0.00  0.00    +0.000 A 
ATOM     10  C   UNL     1       4.353  -1.074   0.160  0.00  0.00    +0.000 A 
ATOM     11  O   UNL     1       2.986  -1.051   0.149  0.00  0.00    +0.000 OA
ENDROOT
BRANCH   7  12
ATOM     12  O   UNL     1       8.453  -1.040   0.213  0.00  0.00    +0.000 OA
ATOM     13  H   UNL     1       8.956  -1.904   0.179  0.00  0.00    +0.000 HD
ENDBRANCH   7  12
BRANCH   8  14
ATOM     14  O   UNL     1       7.154  -3.401   0.083  0.00  0.00    +0.000 OA
ATOM     15  H   UNL     1       8.153  -3.366   0.097  0.00  0.00    +0.000 HD
ENDBRANCH   8  14
TORSDOF 2
