
 OpenBabel03132514253D

 45 46  0  0  0  0  0  0  0  0999 V2000
    0.9091   -0.0413    0.0053 C   0  0  0  0  0  0  0  0  0  0  0  0
    0.2289    0.3158   -1.1174 C   0  0  0  0  0  0  0  0  0  0  0  0
   -1.2911    0.3158   -1.1174 C   0  0  0  0  0  0  0  0  0  0  0  0
   -1.7978    1.7157   -1.4240 C   0  0  0  0  0  0  0  0  0  0  0  0
   -0.8919    2.7602   -1.3399 C   0  0  0  0  0  0  0  0  0  0  0  0
   -1.4912    4.0418   -1.3606 C   0  0  0  0  0  0  0  0  0  0  0  0
   -2.7200    4.2873   -1.7771 C   0  0  0  0  0  0  0  0  0  0  0  0
   -3.1597    5.6041   -2.0759 O   0  0  0  0  0  0  0  0  0  0  0  0
   -4.4899    5.8246   -2.5213 C   0  0  0  0  0  0  0  0  0  0  0  0
   -4.7295    5.0716   -3.8320 O   0  0  0  0  0  0  0  0  0  0  0  0
   -4.6286    3.6653   -3.5981 C   0  0  0  0  0  0  0  0  0  0  0  0
   -3.2555    3.4185   -2.9948 C   0  0  0  0  0  0  0  0  0  0  0  0
   -3.0829    2.0280   -2.7639 O   0  0  0  0  0  0  0  0  0  0  0  0
   -5.5856    3.1592   -2.6657 C   0  0  0  0  0  0  0  0  0  0  0  0
   -5.4158    1.7562   -2.5271 O   0  0  0  0  0  0  0  0  0  0  0  0
   -5.3806    3.8349   -1.3078 C   0  0  0  0  0  0  0  0  0  0  0  0
   -4.0913    3.5161   -0.8053 O   0  0  0  0  0  0  0  0  0  0  0  0
   -5.5070    5.3521   -1.4773 C   0  0  0  0  0  0  0  0  0  0  0  0
   -5.2549    5.9957   -0.2369 O   0  0  0  0  0  0  0  0  0  0  0  0
   -3.5463    3.2055   -1.9052 C   0  0  0  0  0  0  0  0  0  0  0  0
   -4.9245    3.4065   -2.1819 O   0  0  0  0  0  0  0  0  0  0  0  0
   -5.7917    2.2902   -2.3169 C   0  0  0  0  0  0  0  0  0  0  0  0
   -3.0622    1.9267   -1.7702 C   0  0  0  0  0  0  0  0  0  0  0  0
    0.3741   -0.3222    0.8884 H   0  0  0  0  0  0  0  0  0  0  0  0
    1.9791   -0.0413    0.0053 H   0  0  0  0  0  0  0  0  0  0  0  0
    0.7639    0.5967   -2.0004 H   0  0  0  0  0  0  0  0  0  0  0  0
   -1.6478   -0.3638   -1.8629 H   0  0  0  0  0  0  0  0  0  0  0  0
   -1.6478    0.0100   -0.1561 H   0  0  0  0  0  0  0  0  0  0  0  0
    0.1651    2.6113   -1.2661 H   0  0  0  0  0  0  0  0  0  0  0  0
   -0.9081    4.8695   -1.0146 H   0  0  0  0  0  0  0  0  0  0  0  0
   -4.6178    6.8759   -2.6737 H   0  0  0  0  0  0  0  0  0  0  0  0
   -4.7673    3.1588   -4.5304 H   0  0  0  0  0  0  0  0  0  0  0  0
   -2.5015    3.7641   -3.6707 H   0  0  0  0  0  0  0  0  0  0  0  0
   -3.1730    3.9468   -2.0680 H   0  0  0  0  0  0  0  0  0  0  0  0
   -3.7876    1.7050   -2.1322 H   0  0  0  0  0  0  0  0  0  0  0  0
   -6.5736    3.3652   -3.0212 H   0  0  0  0  0  0  0  0  0  0  0  0
   -4.4926    1.5634   -2.1949 H   0  0  0  0  0  0  0  0  0  0  0  0
   -6.1231    3.4884   -0.6196 H   0  0  0  0  0  0  0  0  0  0  0  0
   -3.3947    3.8386   -1.4462 H   0  0  0  0  0  0  0  0  0  0  0  0
   -6.4962    5.5952   -1.8048 H   0  0  0  0  0  0  0  0  0  0  0  0
   -4.3311    5.7714    0.0733 H   0  0  0  0  0  0  0  0  0  0  0  0
   -5.4540    1.6715   -3.1220 H   0  0  0  0  0  0  0  0  0  0  0  0
   -5.7902    1.7253   -1.4082 H   0  0  0  0  0  0  0  0  0  0  0  0
   -6.7844    2.6325   -2.5224 H   0  0  0  0  0  0  0  0  0  0  0  0
   -3.7101    1.0934   -1.9455 H   0  0  0  0  0  0  0  0  0  0  0  0
  1  2  2  0  0  0  0
  1 24  1  0  0  0  0
  1 25  1  0  0  0  0
  2  3  1  0  0  0  0
  2 26  1  0  0  0  0
  3  4  1  0  0  0  0
  3 27  1  0  0  0  0
  3 28  1  0  0  0  0
  4  5  1  0  0  0  0
  4 23  2  0  0  0  0
  5  6  2  0  0  0  0
  5 29  1  0  0  0  0
  6  7  1  0  0  0  0
  6 30  1  0  0  0  0
  7  8  1  0  0  0  0
  7 20  2  0  0  0  0
  8  9  1  0  0  0  0
  9 10  1  0  0  0  0
  9 18  1  0  0  0  0
  9 31  1  0  0  0  0
 10 11  1  0  0  0  0
 11 12  1  0  0  0  0
 11 14  1  0  0  0  0
 11 32  1  0  0  0  0
 12 13  1  0  0  0  0
 12 33  1  0  0  0  0
 12 34  1  0  0  0  0
 13 35  1  0  0  0  0
 14 15  1  0  0  0  0
 14 16  1  0  0  0  0
 14 36  1  0  0  0  0
 15 37  1  0  0  0  0
 16 17  1  0  0  0  0
 16 18  1  0  0  0  0
 16 38  1  0  0  0  0
 17 39  1  0  0  0  0
 18 19  1  0  0  0  0
 18 40  1  0  0  0  0
 19 41  1  0  0  0  0
 20 21  1  0  0  0  0
 20 23  1  0  0  0  0
 21 22  1  0  0  0  0
 22 42  1  0  0  0  0
 22 43  1  0  0  0  0
 22 44  1  0  0  0  0
 23 45  1  0  0  0  0
M  END
