
 OpenBabel03132512093D

 45 46  0  0  0  0  0  0  0  0999 V2000
    1.0619   -0.0563    0.0547 C   0  0  0  0  0  0  0  0  0  0  0  0
    0.3817    1.0242    0.5241 C   0  0  0  0  0  0  0  0  0  0  0  0
   -1.1383    1.0242    0.5241 C   0  0  0  0  0  0  0  0  0  0  0  0
   -1.6449    1.1869    1.9479 C   0  0  0  0  0  0  0  0  0  0  0  0
   -1.8093    2.4599    2.4684 C   0  0  0  0  0  0  0  0  0  0  0  0
   -1.9770    2.4877    3.8731 C   0  0  0  0  0  0  0  0  0  0  0  0
   -2.3135    1.4434    4.6080 C   0  0  0  0  0  0  0  0  0  0  0  0
   -2.7747    1.5856    5.9434 O   0  0  0  0  0  0  0  0  0  0  0  0
   -3.1263    0.4361    6.6994 C   0  0  0  0  0  0  0  0  0  0  0  0
   -4.1660   -0.1643    5.7502 O   0  0  0  0  0  0  0  0  0  0  0  0
   -3.5402   -0.5000    4.5099 C   0  0  0  0  0  0  0  0  0  0  0  0
   -2.8974    0.7732    3.9844 C   0  0  0  0  0  0  0  0  0  0  0  0
   -2.2795    0.5099    2.7333 O   0  0  0  0  0  0  0  0  0  0  0  0
   -2.4979   -1.4702    4.6265 C   0  0  0  0  0  0  0  0  0  0  0  0
   -1.9647   -1.7495    3.3404 O   0  0  0  0  0  0  0  0  0  0  0  0
   -1.3908   -0.9225    5.5302 C   0  0  0  0  0  0  0  0  0  0  0  0
   -0.8237    0.2384    4.9411 O   0  0  0  0  0  0  0  0  0  0  0  0
   -1.9865   -0.5686    6.8965 C   0  0  0  0  0  0  0  0  0  0  0  0
   -0.9830    0.0012    7.7239 O   0  0  0  0  0  0  0  0  0  0  0  0
   -2.1937    0.2178    4.0139 C   0  0  0  0  0  0  0  0  0  0  0  0
   -2.3720   -0.9571    4.7912 O   0  0  0  0  0  0  0  0  0  0  0  0
   -2.2499   -2.2352    4.1845 C   0  0  0  0  0  0  0  0  0  0  0  0
   -1.9034    0.1066    2.6755 C   0  0  0  0  0  0  0  0  0  0  0  0
    0.5269   -0.9062   -0.3146 H   0  0  0  0  0  0  0  0  0  0  0  0
    2.1319   -0.0563    0.0547 H   0  0  0  0  0  0  0  0  0  0  0  0
    0.9167    1.8741    0.8933 H   0  0  0  0  0  0  0  0  0  0  0  0
   -1.4949    1.8350   -0.0762 H   0  0  0  0  0  0  0  0  0  0  0  0
   -1.4949    0.0990    0.1221 H   0  0  0  0  0  0  0  0  0  0  0  0
   -1.8094    3.3423    1.8631 H   0  0  0  0  0  0  0  0  0  0  0  0
   -1.8204    3.4198    4.3748 H   0  0  0  0  0  0  0  0  0  0  0  0
   -3.4310    0.6690    7.6983 H   0  0  0  0  0  0  0  0  0  0  0  0
   -4.2881   -0.8878    3.8503 H   0  0  0  0  0  0  0  0  0  0  0  0
   -3.6473    1.5264    3.8603 H   0  0  0  0  0  0  0  0  0  0  0  0
   -2.1607    1.1147    4.6812 H   0  0  0  0  0  0  0  0  0  0  0  0
   -1.5787   -0.1940    2.8493 H   0  0  0  0  0  0  0  0  0  0  0  0
   -2.8932   -2.3692    5.0513 H   0  0  0  0  0  0  0  0  0  0  0  0
   -1.5952   -0.9095    2.9431 H   0  0  0  0  0  0  0  0  0  0  0  0
   -0.6291   -1.6639    5.6529 H   0  0  0  0  0  0  0  0  0  0  0  0
   -1.5330    0.9337    4.8250 H   0  0  0  0  0  0  0  0  0  0  0  0
   -2.3655   -1.4540    7.3626 H   0  0  0  0  0  0  0  0  0  0  0  0
   -0.6255    0.8293    7.2922 H   0  0  0  0  0  0  0  0  0  0  0  0
   -2.9748   -2.3298    3.4031 H   0  0  0  0  0  0  0  0  0  0  0  0
   -1.2674   -2.3430    3.7745 H   0  0  0  0  0  0  0  0  0  0  0  0
   -2.4155   -2.9958    4.9186 H   0  0  0  0  0  0  0  0  0  0  0  0
   -1.8855   -0.8592    2.2153 H   0  0  0  0  0  0  0  0  0  0  0  0
  1  2  2  0  0  0  0
  1 24  1  0  0  0  0
  1 25  1  0  0  0  0
  2  3  1  0  0  0  0
  2 26  1  0  0  0  0
  3  4  1  0  0  0  0
  3 27  1  0  0  0  0
  3 28  1  0  0  0  0
  4  5  1  0  0  0  0
  4 23  2  0  0  0  0
  5  6  2  0  0  0  0
  5 29  1  0  0  0  0
  6  7  1  0  0  0  0
  6 30  1  0  0  0  0
  7  8  1  0  0  0  0
  7 20  2  0  0  0  0
  8  9  1  0  0  0  0
  9 10  1  0  0  0  0
  9 18  1  0  0  0  0
  9 31  1  0  0  0  0
 10 11  1  0  0  0  0
 11 12  1  0  0  0  0
 11 14  1  0  0  0  0
 11 32  1  0  0  0  0
 12 13  1  0  0  0  0
 12 33  1  0  0  0  0
 12 34  1  0  0  0  0
 13 35  1  0  0  0  0
 14 15  1  0  0  0  0
 14 16  1  0  0  0  0
 14 36  1  0  0  0  0
 15 37  1  0  0  0  0
 16 17  1  0  0  0  0
 16 18  1  0  0  0  0
 16 38  1  0  0  0  0
 17 39  1  0  0  0  0
 18 19  1  0  0  0  0
 18 40  1  0  0  0  0
 19 41  1  0  0  0  0
 20 21  1  0  0  0  0
 20 23  1  0  0  0  0
 21 22  1  0  0  0  0
 22 42  1  0  0  0  0
 22 43  1  0  0  0  0
 22 44  1  0  0  0  0
 23 45  1  0  0  0  0
M  END
