REMARK  Name = 
REMARK  11 active torsions:
REMARK  status: ('A' for Active; 'I' for Inactive)
REMARK    1  A    between atoms: C_2  and  C_3
REMARK    2  A    between atoms: C_3  and  C_4
REMARK    3  A    between atoms: C_7  and  O_8
REMARK    4  A    between atoms: O_8  and  C_9
REMARK    5  A    between atoms: C_11  and  C_12
REMARK    6  A    between atoms: C_12  and  O_13
REMARK    7  A    between atoms: C_14  and  O_15
REMARK    8  A    between atoms: C_16  and  O_17
REMARK    9  A    between atoms: C_18  and  O_19
REMARK   10  A    between atoms: C_20  and  O_21
REMARK   11  A    between atoms: O_21  and  C_22
REMARK                            x       y       z     vdW  Elec       q    Type
REMARK                         _______ _______ _______ _____ _____    ______ ____
ROOT
ATOM      1  C   UNL     1      -3.126   0.436   6.699  0.00  0.00    +0.000 C 
ATOM      2  O   UNL     1      -4.166  -0.164   5.750  0.00  0.00    +0.000 OA
ATOM      3  C   UNL     1      -3.540  -0.500   4.510  0.00  0.00    +0.000 C 
ATOM      4  C   UNL     1      -2.498  -1.470   4.627  0.00  0.00    +0.000 C 
ATOM      5  C   UNL     1      -1.391  -0.922   5.530  0.00  0.00    +0.000 C 
ATOM      6  C   UNL     1      -1.986  -0.569   6.896  0.00  0.00    +0.000 C 
ENDROOT
BRANCH   4   7
ATOM      7  O   UNL     1      -1.965  -1.750   3.340  0.00  0.00    +0.000 OA
ATOM      8  H   UNL     1      -1.595  -0.909   2.943  0.00  0.00    +0.000 HD
ENDBRANCH   4   7
BRANCH   5   9
ATOM      9  O   UNL     1      -0.824   0.238   4.941  0.00  0.00    +0.000 OA
ATOM     10  H   UNL     1      -1.533   0.934   4.825  0.00  0.00    +0.000 HD
ENDBRANCH   5   9
BRANCH   6  11
ATOM     11  O   UNL     1      -0.983   0.001   7.724  0.00  0.00    +0.000 OA
ATOM     12  H   UNL     1      -0.625   0.829   7.292  0.00  0.00    +0.000 HD
ENDBRANCH   6  11
BRANCH   1  13
ATOM     13  O   UNL     1      -2.775   1.586   5.943  0.00  0.00    +0.000 OA
BRANCH  13  17
ATOM     14  C   UNL     1      -1.645   1.187   1.948  0.00  0.00    +0.000 A 
ATOM     15  C   UNL     1      -1.809   2.460   2.468  0.00  0.00    +0.000 A 
ATOM     16  C   UNL     1      -1.977   2.488   3.873  0.00  0.00    +0.000 A 
ATOM     17  C   UNL     1      -2.313   1.443   4.608  0.00  0.00    +0.000 A 
ATOM     18  C   UNL     1      -2.194   0.218   4.014  0.00  0.00    +0.000 A 
ATOM     19  C   UNL     1      -1.903   0.107   2.675  0.00  0.00    +0.000 A 
BRANCH  18  20
ATOM     20  O   UNL     1      -2.372  -0.957   4.791  0.00  0.00    +0.000 OA
ATOM     21  C   UNL     1      -2.250  -2.235   4.184  0.00  0.00    +0.000 C 
ENDBRANCH  18  20
BRANCH  14  22
ATOM     22  C   UNL     1      -1.138   1.024   0.524  0.00  0.00    +0.000 C 
BRANCH  22  24
ATOM     23  C   UNL     1       1.062  -0.056   0.055  0.00  0.00    +0.000 C 
ATOM     24  C   UNL     1       0.382   1.024   0.524  0.00  0.00    +0.000 C 
ENDBRANCH  22  24
ENDBRANCH  14  22
ENDBRANCH  13  17
ENDBRANCH   1  13
BRANCH   3  25
ATOM     25  C   UNL     1      -2.897   0.773   3.984  0.00  0.00    +0.000 C 
BRANCH  25  26
ATOM     26  O   UNL     1      -2.280   0.510   2.733  0.00  0.00    +0.000 OA
ATOM     27  H   UNL     1      -1.579  -0.194   2.849  0.00  0.00    +0.000 HD
ENDBRANCH  25  26
ENDBRANCH   3  25
TORSDOF 10
