REMARK  Name = 
REMARK  22 active torsions:
REMARK  status: ('A' for Active; 'I' for Inactive)
REMARK    1  A    between atoms: C_1  and  O_2
REMARK    2  A    between atoms: O_2  and  C_3
REMARK    3  A    between atoms: C_8  and  C_9
REMARK    4  A    between atoms: C_10  and  O_11
REMARK    5  A    between atoms: C_26  and  C_27
REMARK    6  A    between atoms: C_27  and  C_28
REMARK    7  A    between atoms: C_27  and  C_29
REMARK    8  A    between atoms: C_29  and  C_30
REMARK    9  A    between atoms: C_33  and  O_34
REMARK   10  A    between atoms: O_34  and  C_35
REMARK   11  A    between atoms: C_35  and  C_36
REMARK   12  A    between atoms: C_36  and  O_37
REMARK   13  A    between atoms: C_38  and  O_39
REMARK   14  A    between atoms: O_39  and  C_40
REMARK   15  A    between atoms: C_45  and  C_46
REMARK   16  A    between atoms: C_48  and  C_49
REMARK   17  A    between atoms: C_50  and  O_51
REMARK   18  A    between atoms: C_52  and  O_53
REMARK   19  A    between atoms: O_53  and  C_54
REMARK   20  A    between atoms: C_57  and  C_58
REMARK   21  A    between atoms: C_60  and  C_61
REMARK   22  A    between atoms: C_67  and  C_68
REMARK                            x       y       z     vdW  Elec       q    Type
REMARK                         _______ _______ _______ _____ _____    ______ ____
ROOT
ATOM      1  C   UNL     1       1.076  -2.320  -0.461  0.00  0.00    +0.000 C 
ATOM      2  C   UNL     1       2.596  -2.320  -0.461  0.00  0.00    +0.000 C 
ATOM      3  C   UNL     1       3.102  -2.572   0.950  0.00  0.00    +0.000 C 
ATOM      4  C   UNL     1       3.036  -4.069   1.260  0.00  0.00    +0.000 C 
ATOM      5  C   UNL     1       3.887  -4.780   0.358  0.00  0.00    +0.000 C 
ATOM      6  C   UNL     1       5.266  -4.414   0.447  0.00  0.00    +0.000 C 
ATOM      7  C   UNL     1       6.075  -5.249  -0.532  0.00  0.00    +0.000 C 
ATOM      8  C   UNL     1       5.422  -2.931   0.104  0.00  0.00    +0.000 C 
ATOM      9  O   UNL     1       4.556  -2.101   1.057  0.00  0.00    +0.000 OA
ATOM     10  C   UNL     1       6.879  -2.524   0.256  0.00  0.00    +0.000 C 
ATOM     11  O   UNL     1       7.743  -3.382   0.620  0.00  0.00    +0.000 OA
ATOM     12  C   UNL     1       7.302  -1.092  -0.028  0.00  0.00    +0.000 C 
ATOM     13  O   UNL     1       6.438  -0.235  -0.392  0.00  0.00    +0.000 OA
ATOM     14  N   UNL     1       8.711  -0.700   0.119  0.00  0.00    +0.000 N 
ATOM     15  C   UNL     1       9.153   0.576   0.841  0.00  0.00    +0.000 C 
ATOM     16  C   UNL     1      10.024   0.233   1.921  0.00  0.00    +0.000 C 
ATOM     17  C   UNL     1      11.221  -0.432   1.516  0.00  0.00    +0.000 C 
ATOM     18  C   UNL     1      10.863  -1.748   0.821  0.00  0.00    +0.000 C 
ATOM     19  C   UNL     1       9.951  -1.453  -0.373  0.00  0.00    +0.000 C 
ATOM     20  C   UNL     1       9.531  -2.757  -1.032  0.00  0.00    +0.000 C 
ATOM     21  O   UNL     1       9.822  -2.976  -2.250  0.00  0.00    +0.000 OA
ATOM     22  O   UNL     1       8.813  -3.730  -0.287  0.00  0.00    +0.000 OA
ATOM     23  C   UNL     1       8.421  -4.948  -0.903  0.00  0.00    +0.000 C 
ATOM     24  C   UNL     1       9.655  -5.692  -1.386  0.00  0.00    +0.000 C 
ATOM     25  C   UNL     1      10.562  -5.991  -0.204  0.00  0.00    +0.000 C 
ATOM     26  O   UNL     1      10.851  -7.194   0.087  0.00  0.00    +0.000 OA
ATOM     27  C   UNL     1      11.124  -4.852   0.631  0.00  0.00    +0.000 C 
ATOM     28  C   UNL     1      11.961  -3.942  -0.253  0.00  0.00    +0.000 C 
ATOM     29  C   UNL     1       9.979  -4.056   1.238  0.00  0.00    +0.000 C 
ATOM     30  C   UNL     1       9.868  -3.948   2.589  0.00  0.00    +0.000 C 
ATOM     31  C   UNL     1       8.724  -3.152   3.196  0.00  0.00    +0.000 C 
ATOM     32  C   UNL     1      10.888  -4.622   3.492  0.00  0.00    +0.000 C 
ATOM     33  C   UNL     1      12.272  -4.071   3.192  0.00  0.00    +0.000 C 
ATOM     34  C   UNL     1      13.292  -4.745   4.096  0.00  0.00    +0.000 C 
ATOM     35  O   UNL     1      14.249  -5.410   3.588  0.00  0.00    +0.000 OA
ATOM     36  C   UNL     1      13.168  -4.624   5.606  0.00  0.00    +0.000 C 
ATOM     37  C   UNL     1      13.237  -3.159   6.004  0.00  0.00    +0.000 C 
ATOM     38  C   UNL     1      11.838  -5.208   6.053  0.00  0.00    +0.000 C 
ATOM     39  C   UNL     1      11.769  -6.674   5.655  0.00  0.00    +0.000 C 
ATOM     40  C   UNL     1      12.905  -7.433   6.320  0.00  0.00    +0.000 C 
ATOM     41  C   UNL     1      10.439  -7.258   6.103  0.00  0.00    +0.000 C 
ATOM     42  C   UNL     1       9.582  -7.780   5.184  0.00  0.00    +0.000 C 
ATOM     43  C   UNL     1       8.252  -8.364   5.631  0.00  0.00    +0.000 C 
ATOM     44  C   UNL     1       7.395  -8.886   4.713  0.00  0.00    +0.000 C 
ATOM     45  C   UNL     1       6.065  -9.470   5.160  0.00  0.00    +0.000 C 
ATOM     46  C   UNL     1       0.569  -2.068  -1.872  0.00  0.00    +0.000 C 
ATOM     47  C   UNL     1      -0.925  -2.019  -2.145  0.00  0.00    +0.000 C 
ENDROOT
BRANCH   1  49
ATOM     48  C   UNL     1       1.076  -0.037  -0.054  0.00  0.00    +0.000 C 
ATOM     49  O   UNL     1       0.602  -1.296   0.402  0.00  0.00    +0.000 OA
ENDBRANCH   1  49
BRANCH   8  50
ATOM     50  O   UNL     1       5.010  -2.704  -1.236  0.00  0.00    +0.000 OA
ATOM     51  H   UNL     1       4.051  -2.970  -1.339  0.00  0.00    +0.000 HD
ENDBRANCH   8  50
BRANCH  23  52
ATOM     52  C   UNL     1       7.514  -4.649  -2.085  0.00  0.00    +0.000 C 
ATOM     53  C   UNL     1       8.261  -3.790  -3.093  0.00  0.00    +0.000 C 
BRANCH  52  54
ATOM     54  C   UNL     1       7.094  -5.953  -2.744  0.00  0.00    +0.000 C 
BRANCH  54  55
ATOM     55  C   UNL     1       6.346  -6.812  -1.737  0.00  0.00    +0.000 C 
ATOM     56  C   UNL     1       4.981  -6.126  -1.645  0.00  0.00    +0.000 C 
ATOM     57  C   UNL     1       4.368  -6.113  -2.936  0.00  0.00    +0.000 C 
ATOM     58  C   UNL     1       4.127  -7.412  -3.481  0.00  0.00    +0.000 C 
ATOM     59  C   UNL     1       5.458  -8.149  -3.647  0.00  0.00    +0.000 C 
ATOM     60  C   UNL     1       6.161  -8.229  -2.288  0.00  0.00    +0.000 C 
BRANCH  59  61
ATOM     61  O   UNL     1       6.280  -7.450  -4.569  0.00  0.00    +0.000 OA
ATOM     62  C   UNL     1       6.524  -6.137  -4.085  0.00  0.00    +0.000 C 
ENDBRANCH  59  61
BRANCH  58  63
ATOM     63  O   UNL     1       3.494  -7.285  -4.746  0.00  0.00    +0.000 OA
BRANCH  63  64
ATOM     64  C   UNL     1       4.335  -6.552  -5.624  0.00  0.00    +0.000 C 
BRANCH  64  65
ATOM     65  C   UNL     1       4.591  -5.170  -5.045  0.00  0.00    +0.000 C 
BRANCH  65  66
ATOM     66  O   UNL     1       5.224  -5.297  -3.780  0.00  0.00    +0.000 OA
ATOM     67  H   UNL     1       4.631  -5.813  -3.161  0.00  0.00    +0.000 HD
ENDBRANCH  65  66
ENDBRANCH  64  65
ENDBRANCH  63  64
ENDBRANCH  58  63
ENDBRANCH  54  55
ENDBRANCH  52  54
ENDBRANCH  23  52
BRANCH  32  68
ATOM     68  O   UNL     1      10.874  -6.022   3.258  0.00  0.00    +0.000 OA
ATOM     69  H   UNL     1       9.963  -6.385   3.455  0.00  0.00    +0.000 HD
ENDBRANCH  32  68
BRANCH  33  70
ATOM     70  O   UNL     1      12.286  -2.671   3.426  0.00  0.00    +0.000 OA
ATOM     71  C   UNL     1      11.333  -2.041   2.582  0.00  0.00    +0.000 C 
ENDBRANCH  33  70
TORSDOF 12
