
 OpenBabel03132514253D

151154  0  0  0  0  0  0  0  0999 V2000
    1.0264    0.0733   -0.0627 C   0  0  0  0  0  0  0  0  0  0  0  0
    0.5530   -0.9892   -0.8773 O   0  0  0  0  0  0  0  0  0  0  0  0
    1.0264   -0.8150   -2.2047 C   0  0  0  0  0  0  0  0  0  0  0  0
    2.5464   -0.8150   -2.2047 C   0  0  0  0  0  0  0  0  0  0  0  0
    3.0530   -2.1388   -1.6557 C   0  0  0  0  0  0  0  0  0  0  0  0
    2.5451   -3.5417   -1.9963 C   0  0  0  0  0  0  0  0  0  0  0  0
    2.3816   -3.6581   -3.4113 C   0  0  0  0  0  0  0  0  0  0  0  0
    3.5886   -3.4788   -4.1544 C   0  0  0  0  0  0  0  0  0  0  0  0
    3.3017   -3.6514   -5.6370 C   0  0  0  0  0  0  0  0  0  0  0  0
    4.1388   -2.0732   -3.9011 C   0  0  0  0  0  0  0  0  0  0  0  0
    3.2090   -1.1055   -4.3651 O   0  0  0  0  0  0  0  0  0  0  0  0
    4.3695   -1.8872   -2.3982 O   0  0  0  0  0  0  0  0  0  0  0  0
    5.4542   -1.9005   -4.6429 C   0  0  0  0  0  0  0  0  0  0  0  0
    5.9226   -2.8566   -5.3371 O   0  0  0  0  0  0  0  0  0  0  0  0
    6.2095   -0.5844   -4.5545 C   0  0  0  0  0  0  0  0  0  0  0  0
    5.7412    0.3716   -3.8604 O   0  0  0  0  0  0  0  0  0  0  0  0
    7.4817   -0.4175   -5.2719 N   0  0  0  0  0  0  0  0  0  0  0  0
    8.7512    0.2107   -4.6922 C   0  0  0  0  0  0  0  0  0  0  0  0
    9.8269   -0.7266   -4.7760 C   0  0  0  0  0  0  0  0  0  0  0  0
   10.1508   -1.1245   -6.1095 C   0  0  0  0  0  0  0  0  0  0  0  0
    8.9379   -1.8067   -6.7465 C   0  0  0  0  0  0  0  0  0  0  0  0
    7.7476   -0.8427   -6.7197 C   0  0  0  0  0  0  0  0  0  0  0  0
    6.5168   -1.5312   -7.2866 C   0  0  0  0  0  0  0  0  0  0  0  0
    5.9362   -1.0528   -8.3109 O   0  0  0  0  0  0  0  0  0  0  0  0
    6.0157   -2.7091   -6.6718 O   0  0  0  0  0  0  0  0  0  0  0  0
    4.8659   -3.3523   -7.2014 C   0  0  0  0  0  0  0  0  0  0  0  0
    3.6882   -2.3919   -7.1695 C   0  0  0  0  0  0  0  0  0  0  0  0
    4.0124   -1.1646   -8.0056 C   0  0  0  0  0  0  0  0  0  0  0  0
    2.4574   -3.0804   -7.7364 C   0  0  0  0  0  0  0  0  0  0  0  0
    2.1331   -4.3077   -6.9003 C   0  0  0  0  0  0  0  0  0  0  0  0
    0.6043   -4.3032   -6.9705 C   0  0  0  0  0  0  0  0  0  0  0  0
    0.1898   -4.4749   -8.3275 C   0  0  0  0  0  0  0  0  0  0  0  0
    0.6133   -5.7064   -8.9151 C   0  0  0  0  0  0  0  0  0  0  0  0
    0.1287   -5.7869  -10.2474 O   0  0  0  0  0  0  0  0  0  0  0  0
    0.6418   -4.7004  -11.0041 C   0  0  0  0  0  0  0  0  0  0  0  0
    0.1909   -3.3902  -10.3793 C   0  0  0  0  0  0  0  0  0  0  0  0
    0.6755   -3.3097   -9.0470 O   0  0  0  0  0  0  0  0  0  0  0  0
    2.1425   -5.7677   -8.9234 C   0  0  0  0  0  0  0  0  0  0  0  0
    2.6584   -4.7166   -9.7268 O   0  0  0  0  0  0  0  0  0  0  0  0
    2.2382   -3.4673   -9.1986 C   0  0  0  0  0  0  0  0  0  0  0  0
    2.6591   -5.6210   -7.4888 C   0  0  0  0  0  0  0  0  0  0  0  0
    5.1370   -3.7740   -8.6363 C   0  0  0  0  0  0  0  0  0  0  0  0
    6.3147   -4.7345   -8.6682 C   0  0  0  0  0  0  0  0  0  0  0  0
    6.1632   -5.9107   -9.1252 O   0  0  0  0  0  0  0  0  0  0  0  0
    7.6735   -4.2881   -8.1537 C   0  0  0  0  0  0  0  0  0  0  0  0
    8.1529   -3.0923   -8.9603 C   0  0  0  0  0  0  0  0  0  0  0  0
    7.5576   -3.8979   -6.6892 C   0  0  0  0  0  0  0  0  0  0  0  0
    8.2922   -4.5533   -5.7504 C   0  0  0  0  0  0  0  0  0  0  0  0
    8.1762   -4.1630   -4.2859 C   0  0  0  0  0  0  0  0  0  0  0  0
    9.2290   -5.6758   -6.1659 C   0  0  0  0  0  0  0  0  0  0  0  0
    8.4829   -6.7055   -6.7979 O   0  0  0  0  0  0  0  0  0  0  0  0
   10.2686   -5.1359   -7.1345 C   0  0  0  0  0  0  0  0  0  0  0  0
   11.0147   -4.1062   -6.5024 O   0  0  0  0  0  0  0  0  0  0  0  0
   10.1395   -3.0575   -6.1143 C   0  0  0  0  0  0  0  0  0  0  0  0
   11.2054   -6.2584   -7.5499 C   0  0  0  0  0  0  0  0  0  0  0  0
   11.3023   -6.5848   -8.7744 O   0  0  0  0  0  0  0  0  0  0  0  0
   12.0262   -6.9907   -6.5010 C   0  0  0  0  0  0  0  0  0  0  0  0
   12.9324   -6.0020   -5.7857 C   0  0  0  0  0  0  0  0  0  0  0  0
   11.0942   -7.6442   -5.4936 C   0  0  0  0  0  0  0  0  0  0  0  0
   10.1880   -8.6329   -6.2089 C   0  0  0  0  0  0  0  0  0  0  0  0
   11.0346   -9.7005   -6.8825 C   0  0  0  0  0  0  0  0  0  0  0  0
    9.2559   -9.2863   -5.2016 C   0  0  0  0  0  0  0  0  0  0  0  0
    7.9086   -9.1557   -5.3371 C   0  0  0  0  0  0  0  0  0  0  0  0
    6.9766   -9.8092   -4.3297 C   0  0  0  0  0  0  0  0  0  0  0  0
    5.6293   -9.6786   -4.4653 C   0  0  0  0  0  0  0  0  0  0  0  0
    4.6972  -10.3320   -3.4579 C   0  0  0  0  0  0  0  0  0  0  0  0
    0.5197    0.5088   -2.7537 C   0  0  0  0  0  0  0  0  0  0  0  0
   -0.9747    0.7653   -2.8601 C   0  0  0  0  0  0  0  0  0  0  0  0
    0.6697   -0.0580    0.9375 H   0  0  0  0  0  0  0  0  0  0  0  0
    0.6697    1.0051   -0.4492 H   0  0  0  0  0  0  0  0  0  0  0  0
    2.0964    0.0733   -0.0627 H   0  0  0  0  0  0  0  0  0  0  0  0
    0.6697   -1.6156   -2.8185 H   0  0  0  0  0  0  0  0  0  0  0  0
    2.9030   -0.6837   -3.2049 H   0  0  0  0  0  0  0  0  0  0  0  0
    2.9030   -0.0144   -1.5909 H   0  0  0  0  0  0  0  0  0  0  0  0
    2.8630   -2.2547   -0.6092 H   0  0  0  0  0  0  0  0  0  0  0  0
    3.2527   -4.2694   -1.6577 H   0  0  0  0  0  0  0  0  0  0  0  0
    1.6047   -3.7076   -1.5136 H   0  0  0  0  0  0  0  0  0  0  0  0
    1.7157   -2.8758   -3.7105 H   0  0  0  0  0  0  0  0  0  0  0  0
    1.9964   -4.6331   -3.6260 H   0  0  0  0  0  0  0  0  0  0  0  0
    4.3100   -4.2056   -3.8440 H   0  0  0  0  0  0  0  0  0  0  0  0
    4.2058   -3.5169   -6.1933 H   0  0  0  0  0  0  0  0  0  0  0  0
    2.9170   -4.6341   -5.8138 H   0  0  0  0  0  0  0  0  0  0  0  0
    2.5803   -2.9248   -5.9477 H   0  0  0  0  0  0  0  0  0  0  0  0
    2.3421   -1.2162   -3.8790 H   0  0  0  0  0  0  0  0  0  0  0  0
    9.0001    1.0903   -5.2482 H   0  0  0  0  0  0  0  0  0  0  0  0
    8.5844    0.4718   -3.6680 H   0  0  0  0  0  0  0  0  0  0  0  0
    9.5092   -1.6081   -4.2594 H   0  0  0  0  0  0  0  0  0  0  0  0
   10.6955   -0.2813   -4.3378 H   0  0  0  0  0  0  0  0  0  0  0  0
   10.9741   -1.8076   -6.0880 H   0  0  0  0  0  0  0  0  0  0  0  0
   10.4180   -0.2624   -6.6841 H   0  0  0  0  0  0  0  0  0  0  0  0
    8.6951   -2.6937   -6.1995 H   0  0  0  0  0  0  0  0  0  0  0  0
    9.1646   -2.0676   -7.7592 H   0  0  0  0  0  0  0  0  0  0  0  0
    7.9716    0.0202   -7.3115 H   0  0  0  0  0  0  0  0  0  0  0  0
    4.6376   -4.2162   -6.6128 H   0  0  0  0  0  0  0  0  0  0  0  0
    3.4973   -2.0950   -6.1594 H   0  0  0  0  0  0  0  0  0  0  0  0
    4.2033   -1.4615   -9.0157 H   0  0  0  0  0  0  0  0  0  0  0  0
    3.1834   -0.4885   -7.9831 H   0  0  0  0  0  0  0  0  0  0  0  0
    4.8788   -0.6799   -7.6065 H   0  0  0  0  0  0  0  0  0  0  0  0
    1.6283   -2.4044   -7.7139 H   0  0  0  0  0  0  0  0  0  0  0  0
    2.6482   -3.3773   -8.7465 H   0  0  0  0  0  0  0  0  0  0  0  0
    2.5728   -4.2612   -5.9259 H   0  0  0  0  0  0  0  0  0  0  0  0
    0.2172   -5.1036   -6.3751 H   0  0  0  0  0  0  0  0  0  0  0  0
    0.2328   -3.3710   -6.5992 H   0  0  0  0  0  0  0  0  0  0  0  0
    0.6481   -3.6899   -8.8919 H   0  0  0  0  0  0  0  0  0  0  0  0
   -0.8791   -4.4371   -8.3598 H   0  0  0  0  0  0  0  0  0  0  0  0
    0.2265   -6.5253   -8.3451 H   0  0  0  0  0  0  0  0  0  0  0  0
    1.7109   -4.7434  -11.0102 H   0  0  0  0  0  0  0  0  0  0  0  0
    0.2766   -4.7610  -12.0081 H   0  0  0  0  0  0  0  0  0  0  0  0
    0.5775   -2.5714  -10.9495 H   0  0  0  0  0  0  0  0  0  0  0  0
   -0.8782   -3.3472  -10.3732 H   0  0  0  0  0  0  0  0  0  0  0  0
    0.3142   -4.0748   -8.5141 H   0  0  0  0  0  0  0  0  0  0  0  0
    2.4610   -6.7072   -9.3244 H   0  0  0  0  0  0  0  0  0  0  0  0
    1.1692   -3.4225   -9.1960 H   0  0  0  0  0  0  0  0  0  0  0  0
    2.6020   -3.3627   -8.1978 H   0  0  0  0  0  0  0  0  0  0  0  0
    2.6270   -2.6752   -9.8040 H   0  0  0  0  0  0  0  0  0  0  0  0
    3.7291   -5.6137   -7.4891 H   0  0  0  0  0  0  0  0  0  0  0  0
    2.3134   -6.4429   -6.8973 H   0  0  0  0  0  0  0  0  0  0  0  0
    4.2706   -4.2587   -9.0354 H   0  0  0  0  0  0  0  0  0  0  0  0
    5.3652   -2.9101   -9.2249 H   0  0  0  0  0  0  0  0  0  0  0  0
    8.3742   -5.0905   -8.2546 H   0  0  0  0  0  0  0  0  0  0  0  0
    7.4522   -2.2900   -8.8594 H   0  0  0  0  0  0  0  0  0  0  0  0
    9.1095   -2.7781   -8.5981 H   0  0  0  0  0  0  0  0  0  0  0  0
    8.2346   -3.3670   -9.9912 H   0  0  0  0  0  0  0  0  0  0  0  0
    6.8981   -3.1076   -6.3968 H   0  0  0  0  0  0  0  0  0  0  0  0
    7.8388   -5.0048   -3.7181 H   0  0  0  0  0  0  0  0  0  0  0  0
    9.1328   -3.8488   -3.9237 H   0  0  0  0  0  0  0  0  0  0  0  0
    7.4755   -3.3607   -4.1851 H   0  0  0  0  0  0  0  0  0  0  0  0
    9.7189   -6.0703   -5.3003 H   0  0  0  0  0  0  0  0  0  0  0  0
    7.7990   -7.0607   -6.1607 H   0  0  0  0  0  0  0  0  0  0  0  0
    9.7786   -4.7414   -8.0001 H   0  0  0  0  0  0  0  0  0  0  0  0
    9.6496   -2.6630   -6.9799 H   0  0  0  0  0  0  0  0  0  0  0  0
    9.4077   -3.4376   -5.4325 H   0  0  0  0  0  0  0  0  0  0  0  0
   10.7018   -2.2816   -5.6381 H   0  0  0  0  0  0  0  0  0  0  0  0
   12.6222   -7.7423   -6.9752 H   0  0  0  0  0  0  0  0  0  0  0  0
   12.3364   -5.2505   -5.3115 H   0  0  0  0  0  0  0  0  0  0  0  0
   13.5102   -6.5175   -5.0473 H   0  0  0  0  0  0  0  0  0  0  0  0
   13.5885   -5.5420   -6.4948 H   0  0  0  0  0  0  0  0  0  0  0  0
   11.6720   -8.1597   -4.7552 H   0  0  0  0  0  0  0  0  0  0  0  0
   10.4982   -6.8926   -5.0194 H   0  0  0  0  0  0  0  0  0  0  0  0
    9.6101   -8.1174   -6.9473 H   0  0  0  0  0  0  0  0  0  0  0  0
   11.6125  -10.2160   -6.1441 H   0  0  0  0  0  0  0  0  0  0  0  0
   10.3967  -10.3965   -7.3861 H   0  0  0  0  0  0  0  0  0  0  0  0
   11.6907   -9.2405   -7.5917 H   0  0  0  0  0  0  0  0  0  0  0  0
    9.6595   -9.8490   -4.3858 H   0  0  0  0  0  0  0  0  0  0  0  0
    7.5050   -8.5931   -6.1528 H   0  0  0  0  0  0  0  0  0  0  0  0
    7.3802  -10.3718   -3.5140 H   0  0  0  0  0  0  0  0  0  0  0  0
    5.2257   -9.1159   -5.2810 H   0  0  0  0  0  0  0  0  0  0  0  0
    5.1008  -10.8947   -2.6422 H   0  0  0  0  0  0  0  0  0  0  0  0
   -1.4175    0.0328   -3.5021 H   0  0  0  0  0  0  0  0  0  0  0  0
   -1.4175    0.7021   -1.8880 H   0  0  0  0  0  0  0  0  0  0  0  0
   -1.1410    1.7417   -3.2650 H   0  0  0  0  0  0  0  0  0  0  0  0
  1  2  1  0  0  0  0
  1 69  1  0  0  0  0
  1 70  1  0  0  0  0
  1 71  1  0  0  0  0
  2  3  1  0  0  0  0
  3  4  1  0  0  0  0
  3 67  1  0  0  0  0
  3 72  1  0  0  0  0
  4  5  1  0  0  0  0
  4 73  1  0  0  0  0
  4 74  1  0  0  0  0
  5  6  1  0  0  0  0
  5 12  1  0  0  0  0
  5 75  1  0  0  0  0
  6  7  1  0  0  0  0
  6 76  1  0  0  0  0
  6 77  1  0  0  0  0
  7  8  1  0  0  0  0
  7 78  1  0  0  0  0
  7 79  1  0  0  0  0
  8  9  1  0  0  0  0
  8 10  1  0  0  0  0
  8 80  1  0  0  0  0
  9 81  1  0  0  0  0
  9 82  1  0  0  0  0
  9 83  1  0  0  0  0
 10 11  1  0  0  0  0
 10 12  1  0  0  0  0
 10 13  1  0  0  0  0
 11 84  1  0  0  0  0
 13 14  2  0  0  0  0
 13 15  1  0  0  0  0
 15 16  2  0  0  0  0
 15 17  1  0  0  0  0
 17 18  1  0  0  0  0
 17 22  1  0  0  0  0
 18 19  1  0  0  0  0
 18 85  1  0  0  0  0
 18 86  1  0  0  0  0
 19 20  1  0  0  0  0
 19 87  1  0  0  0  0
 19 88  1  0  0  0  0
 20 21  1  0  0  0  0
 20 89  1  0  0  0  0
 20 90  1  0  0  0  0
 21 22  1  0  0  0  0
 21 91  1  0  0  0  0
 21 92  1  0  0  0  0
 22 23  1  0  0  0  0
 22 93  1  0  0  0  0
 23 24  2  0  0  0  0
 23 25  1  0  0  0  0
 25 26  1  0  0  0  0
 26 27  1  0  0  0  0
 26 42  1  0  0  0  0
 26 94  1  0  0  0  0
 27 28  1  0  0  0  0
 27 29  1  0  0  0  0
 27 95  1  0  0  0  0
 28 96  1  0  0  0  0
 28 97  1  0  0  0  0
 28 98  1  0  0  0  0
 29 30  1  0  0  0  0
 29 99  1  0  0  0  0
 29100  1  0  0  0  0
 30 31  1  0  0  0  0
 30 41  1  0  0  0  0
 30101  1  0  0  0  0
 31 32  1  0  0  0  0
 31102  1  0  0  0  0
 31103  1  0  0  0  0
 32 33  1  0  0  0  0
 32104  1  0  0  0  0
 32105  1  0  0  0  0
 33 34  1  0  0  0  0
 33 38  1  0  0  0  0
 33106  1  0  0  0  0
 34 35  1  0  0  0  0
 35 36  1  0  0  0  0
 35107  1  0  0  0  0
 35108  1  0  0  0  0
 36 37  1  0  0  0  0
 36109  1  0  0  0  0
 36110  1  0  0  0  0
 37111  1  0  0  0  0
 38 39  1  0  0  0  0
 38 41  1  0  0  0  0
 38112  1  0  0  0  0
 39 40  1  0  0  0  0
 40113  1  0  0  0  0
 40114  1  0  0  0  0
 40115  1  0  0  0  0
 41116  1  0  0  0  0
 41117  1  0  0  0  0
 42 43  1  0  0  0  0
 42118  1  0  0  0  0
 42119  1  0  0  0  0
 43 44  2  0  0  0  0
 43 45  1  0  0  0  0
 45 46  1  0  0  0  0
 45 47  1  0  0  0  0
 45120  1  0  0  0  0
 46121  1  0  0  0  0
 46122  1  0  0  0  0
 46123  1  0  0  0  0
 47 48  2  0  0  0  0
 47124  1  0  0  0  0
 48 49  1  0  0  0  0
 48 50  1  0  0  0  0
 49125  1  0  0  0  0
 49126  1  0  0  0  0
 49127  1  0  0  0  0
 50 51  1  0  0  0  0
 50 52  1  0  0  0  0
 50128  1  0  0  0  0
 51129  1  0  0  0  0
 52 53  1  0  0  0  0
 52 55  1  0  0  0  0
 52130  1  0  0  0  0
 53 54  1  0  0  0  0
 54131  1  0  0  0  0
 54132  1  0  0  0  0
 54133  1  0  0  0  0
 55 56  2  0  0  0  0
 55 57  1  0  0  0  0
 57 58  1  0  0  0  0
 57 59  1  0  0  0  0
 57134  1  0  0  0  0
 58135  1  0  0  0  0
 58136  1  0  0  0  0
 58137  1  0  0  0  0
 59 60  1  0  0  0  0
 59138  1  0  0  0  0
 59139  1  0  0  0  0
 60 61  1  0  0  0  0
 60 62  1  0  0  0  0
 60140  1  0  0  0  0
 61141  1  0  0  0  0
 61142  1  0  0  0  0
 61143  1  0  0  0  0
 62 63  2  0  0  0  0
 62144  1  0  0  0  0
 63 64  1  0  0  0  0
 63145  1  0  0  0  0
 64 65  2  0  0  0  0
 64146  1  0  0  0  0
 65 66  1  0  0  0  0
 65147  1  0  0  0  0
 66 67  2  0  0  0  0
 66148  1  0  0  0  0
 67 68  1  0  0  0  0
 68149  1  0  0  0  0
 68150  1  0  0  0  0
 68151  1  0  0  0  0
M  END
