
 OpenBabel03132512093D

151154  0  0  0  0  0  0  0  0999 V2000
    1.0757   -0.0373   -0.0536 C   0  0  0  0  0  0  0  0  0  0  0  0
    0.6024   -1.2963    0.4017 O   0  0  0  0  0  0  0  0  0  0  0  0
    1.0757   -2.3200   -0.4610 C   0  0  0  0  0  0  0  0  0  0  0  0
    2.5957   -2.3200   -0.4610 C   0  0  0  0  0  0  0  0  0  0  0  0
    3.1024   -2.5718    0.9498 C   0  0  0  0  0  0  0  0  0  0  0  0
    3.0361   -4.0691    1.2597 C   0  0  0  0  0  0  0  0  0  0  0  0
    3.8872   -4.7798    0.3579 C   0  0  0  0  0  0  0  0  0  0  0  0
    5.2655   -4.4140    0.4466 C   0  0  0  0  0  0  0  0  0  0  0  0
    6.0755   -5.2487   -0.5320 C   0  0  0  0  0  0  0  0  0  0  0  0
    5.4220   -2.9306    0.1038 C   0  0  0  0  0  0  0  0  0  0  0  0
    5.0097   -2.7038   -1.2360 O   0  0  0  0  0  0  0  0  0  0  0  0
    4.5564   -2.1006    1.0570 O   0  0  0  0  0  0  0  0  0  0  0  0
    6.8789   -2.5244    0.2555 C   0  0  0  0  0  0  0  0  0  0  0  0
    7.7431   -3.3822    0.6196 O   0  0  0  0  0  0  0  0  0  0  0  0
    7.3021   -1.0924   -0.0281 C   0  0  0  0  0  0  0  0  0  0  0  0
    6.4378   -0.2346   -0.3921 O   0  0  0  0  0  0  0  0  0  0  0  0
    8.7110   -0.6995    0.1186 N   0  0  0  0  0  0  0  0  0  0  0  0
    9.1528    0.5755    0.8408 C   0  0  0  0  0  0  0  0  0  0  0  0
   10.0236    0.2330    1.9211 C   0  0  0  0  0  0  0  0  0  0  0  0
   11.2213   -0.4324    1.5161 C   0  0  0  0  0  0  0  0  0  0  0  0
   10.8631   -1.7482    0.8212 C   0  0  0  0  0  0  0  0  0  0  0  0
    9.9508   -1.4533   -0.3735 C   0  0  0  0  0  0  0  0  0  0  0  0
    9.5307   -2.7571   -1.0323 C   0  0  0  0  0  0  0  0  0  0  0  0
    9.8215   -2.9764   -2.2500 O   0  0  0  0  0  0  0  0  0  0  0  0
    8.8133   -3.7302   -0.2874 O   0  0  0  0  0  0  0  0  0  0  0  0
    8.4208   -4.9482   -0.9028 C   0  0  0  0  0  0  0  0  0  0  0  0
    7.5139   -4.6491   -2.0854 C   0  0  0  0  0  0  0  0  0  0  0  0
    8.2613   -3.7903   -3.0926 C   0  0  0  0  0  0  0  0  0  0  0  0
    7.0938   -5.9529   -2.7442 C   0  0  0  0  0  0  0  0  0  0  0  0
    6.3465   -6.8117   -1.7370 C   0  0  0  0  0  0  0  0  0  0  0  0
    4.9812   -6.1261   -1.6452 C   0  0  0  0  0  0  0  0  0  0  0  0
    4.3677   -6.1128   -2.9360 C   0  0  0  0  0  0  0  0  0  0  0  0
    4.1270   -7.4116   -3.4805 C   0  0  0  0  0  0  0  0  0  0  0  0
    3.4945   -7.2850   -4.7456 O   0  0  0  0  0  0  0  0  0  0  0  0
    4.3355   -6.5519   -5.6240 C   0  0  0  0  0  0  0  0  0  0  0  0
    4.5914   -5.1700   -5.0450 C   0  0  0  0  0  0  0  0  0  0  0  0
    5.2238   -5.2966   -3.7799 O   0  0  0  0  0  0  0  0  0  0  0  0
    5.4577   -8.1491   -3.6466 C   0  0  0  0  0  0  0  0  0  0  0  0
    6.2798   -7.4496   -4.5692 O   0  0  0  0  0  0  0  0  0  0  0  0
    6.5239   -6.1372   -4.0851 C   0  0  0  0  0  0  0  0  0  0  0  0
    6.1607   -8.2293   -2.2878 C   0  0  0  0  0  0  0  0  0  0  0  0
    9.6549   -5.6923   -1.3862 C   0  0  0  0  0  0  0  0  0  0  0  0
   10.5619   -5.9914   -0.2037 C   0  0  0  0  0  0  0  0  0  0  0  0
   10.8505   -7.1943    0.0875 O   0  0  0  0  0  0  0  0  0  0  0  0
   11.1236   -4.8517    0.6307 C   0  0  0  0  0  0  0  0  0  0  0  0
   11.9607   -3.9415   -0.2531 C   0  0  0  0  0  0  0  0  0  0  0  0
    9.9793   -4.0562    1.2375 C   0  0  0  0  0  0  0  0  0  0  0  0
    9.8679   -3.9476    2.5889 C   0  0  0  0  0  0  0  0  0  0  0  0
    8.7236   -3.1521    3.1957 C   0  0  0  0  0  0  0  0  0  0  0  0
   10.8877   -4.6218    3.4922 C   0  0  0  0  0  0  0  0  0  0  0  0
   10.8745   -6.0223    3.2583 O   0  0  0  0  0  0  0  0  0  0  0  0
   12.2724   -4.0711    3.1924 C   0  0  0  0  0  0  0  0  0  0  0  0
   12.2856   -2.6706    3.4263 O   0  0  0  0  0  0  0  0  0  0  0  0
   11.3329   -2.0408    2.5824 C   0  0  0  0  0  0  0  0  0  0  0  0
   13.2922   -4.7453    4.0957 C   0  0  0  0  0  0  0  0  0  0  0  0
   14.2490   -5.4104    3.5883 O   0  0  0  0  0  0  0  0  0  0  0  0
   13.1678   -4.6239    5.6057 C   0  0  0  0  0  0  0  0  0  0  0  0
   13.2367   -3.1586    6.0036 C   0  0  0  0  0  0  0  0  0  0  0  0
   11.8379   -5.2084    6.0531 C   0  0  0  0  0  0  0  0  0  0  0  0
   11.7689   -6.6738    5.6551 C   0  0  0  0  0  0  0  0  0  0  0  0
   12.9054   -7.4333    6.3199 C   0  0  0  0  0  0  0  0  0  0  0  0
   10.4390   -7.2582    6.1025 C   0  0  0  0  0  0  0  0  0  0  0  0
    9.5817   -7.7797    5.1839 C   0  0  0  0  0  0  0  0  0  0  0  0
    8.2518   -8.3642    5.6313 C   0  0  0  0  0  0  0  0  0  0  0  0
    7.3946   -8.8857    4.7127 C   0  0  0  0  0  0  0  0  0  0  0  0
    6.0647   -9.4701    5.1601 C   0  0  0  0  0  0  0  0  0  0  0  0
    0.5691   -2.0683   -1.8718 C   0  0  0  0  0  0  0  0  0  0  0  0
   -0.9253   -2.0195   -2.1452 C   0  0  0  0  0  0  0  0  0  0  0  0
    0.7191    0.7342    0.5964 H   0  0  0  0  0  0  0  0  0  0  0  0
    0.7191    0.1400   -1.0467 H   0  0  0  0  0  0  0  0  0  0  0  0
    2.1457   -0.0373   -0.0536 H   0  0  0  0  0  0  0  0  0  0  0  0
    0.7191   -3.2687   -0.1179 H   0  0  0  0  0  0  0  0  0  0  0  0
    2.9524   -3.0915   -1.1111 H   0  0  0  0  0  0  0  0  0  0  0  0
    2.9524   -1.3714   -0.8041 H   0  0  0  0  0  0  0  0  0  0  0  0
    2.4939   -2.0347    1.6470 H   0  0  0  0  0  0  0  0  0  0  0  0
    3.3593   -4.2401    2.2652 H   0  0  0  0  0  0  0  0  0  0  0  0
    2.0292   -4.4128    1.1456 H   0  0  0  0  0  0  0  0  0  0  0  0
    3.5648   -4.5312   -0.6316 H   0  0  0  0  0  0  0  0  0  0  0  0
    3.8027   -5.8253    0.5695 H   0  0  0  0  0  0  0  0  0  0  0  0
    5.6179   -4.5894    1.4415 H   0  0  0  0  0  0  0  0  0  0  0  0
    7.1077   -4.9745   -0.4655 H   0  0  0  0  0  0  0  0  0  0  0  0
    5.9659   -6.2857   -0.2922 H   0  0  0  0  0  0  0  0  0  0  0  0
    5.7233   -5.0735   -1.5270 H   0  0  0  0  0  0  0  0  0  0  0  0
    4.0514   -2.9700   -1.3394 H   0  0  0  0  0  0  0  0  0  0  0  0
    9.6693    1.2136    0.1545 H   0  0  0  0  0  0  0  0  0  0  0  0
    8.2932    1.0850    1.2232 H   0  0  0  0  0  0  0  0  0  0  0  0
    9.4868   -0.4503    2.5455 H   0  0  0  0  0  0  0  0  0  0  0  0
   10.2954    1.1331    2.4319 H   0  0  0  0  0  0  0  0  0  0  0  0
   11.8249   -0.6356    2.3759 H   0  0  0  0  0  0  0  0  0  0  0  0
   11.7649    0.1924    0.8386 H   0  0  0  0  0  0  0  0  0  0  0  0
   10.3578   -2.3929    1.5096 H   0  0  0  0  0  0  0  0  0  0  0  0
   11.7567   -2.2276    0.4798 H   0  0  0  0  0  0  0  0  0  0  0  0
   10.4763   -0.8527   -1.0863 H   0  0  0  0  0  0  0  0  0  0  0  0
    7.8948   -5.5527   -0.1938 H   0  0  0  0  0  0  0  0  0  0  0  0
    6.6452   -4.1253   -1.7451 H   0  0  0  0  0  0  0  0  0  0  0  0
    9.1300   -4.3141   -3.4329 H   0  0  0  0  0  0  0  0  0  0  0  0
    7.6228   -3.5797   -3.9250 H   0  0  0  0  0  0  0  0  0  0  0  0
    8.5570   -2.8725   -2.6288 H   0  0  0  0  0  0  0  0  0  0  0  0
    6.4554   -5.7423   -3.5767 H   0  0  0  0  0  0  0  0  0  0  0  0
    7.9625   -6.4767   -3.0845 H   0  0  0  0  0  0  0  0  0  0  0  0
    6.8549   -6.8971   -0.7994 H   0  0  0  0  0  0  0  0  0  0  0  0
    4.3583   -6.6616   -0.9595 H   0  0  0  0  0  0  0  0  0  0  0  0
    5.1090   -5.1212   -1.3006 H   0  0  0  0  0  0  0  0  0  0  0  0
    5.0510   -5.6225   -3.5975 H   0  0  0  0  0  0  0  0  0  0  0  0
    3.4306   -5.6023   -2.8574 H   0  0  0  0  0  0  0  0  0  0  0  0
    3.4930   -7.9640   -2.8188 H   0  0  0  0  0  0  0  0  0  0  0  0
    5.2658   -7.0677   -5.7404 H   0  0  0  0  0  0  0  0  0  0  0  0
    3.8590   -6.4566   -6.5773 H   0  0  0  0  0  0  0  0  0  0  0  0
    5.2251   -4.6177   -5.7069 H   0  0  0  0  0  0  0  0  0  0  0  0
    3.6611   -4.6543   -4.9286 H   0  0  0  0  0  0  0  0  0  0  0  0
    4.6315   -5.8128   -3.1613 H   0  0  0  0  0  0  0  0  0  0  0  0
    5.2760   -9.1373   -4.0146 H   0  0  0  0  0  0  0  0  0  0  0  0
    5.5941   -5.6199   -3.9724 H   0  0  0  0  0  0  0  0  0  0  0  0
    7.0183   -6.1927   -3.1378 H   0  0  0  0  0  0  0  0  0  0  0  0
    7.1434   -5.6101   -4.7804 H   0  0  0  0  0  0  0  0  0  0  0  0
    7.1146   -8.7004   -2.4019 H   0  0  0  0  0  0  0  0  0  0  0  0
    5.5645   -8.8025   -1.6089 H   0  0  0  0  0  0  0  0  0  0  0  0
    9.3592   -6.6101   -1.8500 H   0  0  0  0  0  0  0  0  0  0  0  0
   10.1810   -5.0877   -2.0952 H   0  0  0  0  0  0  0  0  0  0  0  0
   11.7351   -5.2502    1.4130 H   0  0  0  0  0  0  0  0  0  0  0  0
   11.3491   -3.5430   -1.0355 H   0  0  0  0  0  0  0  0  0  0  0  0
   12.3561   -3.1393    0.3342 H   0  0  0  0  0  0  0  0  0  0  0  0
   12.7662   -4.5015   -0.6803 H   0  0  0  0  0  0  0  0  0  0  0  0
    9.2614   -3.5816    0.6016 H   0  0  0  0  0  0  0  0  0  0  0  0
    8.1343   -3.7928    3.8179 H   0  0  0  0  0  0  0  0  0  0  0  0
    9.1190   -2.3499    3.7831 H   0  0  0  0  0  0  0  0  0  0  0  0
    8.1120   -2.7536    2.4134 H   0  0  0  0  0  0  0  0  0  0  0  0
   10.6409   -4.4287    4.5152 H   0  0  0  0  0  0  0  0  0  0  0  0
    9.9635   -6.3846    3.4555 H   0  0  0  0  0  0  0  0  0  0  0  0
   12.5192   -4.2643    2.1693 H   0  0  0  0  0  0  0  0  0  0  0  0
   11.5798   -2.2339    1.5594 H   0  0  0  0  0  0  0  0  0  0  0  0
   10.3582   -2.4284    2.7935 H   0  0  0  0  0  0  0  0  0  0  0  0
   11.3429   -0.9854    2.7587 H   0  0  0  0  0  0  0  0  0  0  0  0
   13.9678   -5.1586    6.0736 H   0  0  0  0  0  0  0  0  0  0  0  0
   12.4367   -2.6239    5.5357 H   0  0  0  0  0  0  0  0  0  0  0  0
   13.1491   -3.0732    7.0666 H   0  0  0  0  0  0  0  0  0  0  0  0
   14.1729   -2.7471    5.6887 H   0  0  0  0  0  0  0  0  0  0  0  0
   11.7503   -5.1230    7.1161 H   0  0  0  0  0  0  0  0  0  0  0  0
   11.0378   -4.6737    5.5851 H   0  0  0  0  0  0  0  0  0  0  0  0
   11.8565   -6.7592    4.5922 H   0  0  0  0  0  0  0  0  0  0  0  0
   12.8178   -7.3479    7.3828 H   0  0  0  0  0  0  0  0  0  0  0  0
   12.8569   -8.4649    6.0397 H   0  0  0  0  0  0  0  0  0  0  0  0
   13.8416   -7.0219    6.0049 H   0  0  0  0  0  0  0  0  0  0  0  0
   10.1771   -7.2595    7.1400 H   0  0  0  0  0  0  0  0  0  0  0  0
    9.8437   -7.7784    4.1465 H   0  0  0  0  0  0  0  0  0  0  0  0
    7.9899   -8.3655    6.6687 H   0  0  0  0  0  0  0  0  0  0  0  0
    7.6565   -8.8844    3.6752 H   0  0  0  0  0  0  0  0  0  0  0  0
    5.8027   -9.4714    6.1975 H   0  0  0  0  0  0  0  0  0  0  0  0
   -1.3682   -2.9552   -1.8747 H   0  0  0  0  0  0  0  0  0  0  0  0
   -1.3682   -1.2351   -1.5677 H   0  0  0  0  0  0  0  0  0  0  0  0
   -1.0916   -1.8338   -3.1858 H   0  0  0  0  0  0  0  0  0  0  0  0
  1  2  1  0  0  0  0
  1 69  1  0  0  0  0
  1 70  1  0  0  0  0
  1 71  1  0  0  0  0
  2  3  1  0  0  0  0
  3  4  1  0  0  0  0
  3 67  1  0  0  0  0
  3 72  1  0  0  0  0
  4  5  1  0  0  0  0
  4 73  1  0  0  0  0
  4 74  1  0  0  0  0
  5  6  1  0  0  0  0
  5 12  1  0  0  0  0
  5 75  1  0  0  0  0
  6  7  1  0  0  0  0
  6 76  1  0  0  0  0
  6 77  1  0  0  0  0
  7  8  1  0  0  0  0
  7 78  1  0  0  0  0
  7 79  1  0  0  0  0
  8  9  1  0  0  0  0
  8 10  1  0  0  0  0
  8 80  1  0  0  0  0
  9 81  1  0  0  0  0
  9 82  1  0  0  0  0
  9 83  1  0  0  0  0
 10 11  1  0  0  0  0
 10 12  1  0  0  0  0
 10 13  1  0  0  0  0
 11 84  1  0  0  0  0
 13 14  2  0  0  0  0
 13 15  1  0  0  0  0
 15 16  2  0  0  0  0
 15 17  1  0  0  0  0
 17 18  1  0  0  0  0
 17 22  1  0  0  0  0
 18 19  1  0  0  0  0
 18 85  1  0  0  0  0
 18 86  1  0  0  0  0
 19 20  1  0  0  0  0
 19 87  1  0  0  0  0
 19 88  1  0  0  0  0
 20 21  1  0  0  0  0
 20 89  1  0  0  0  0
 20 90  1  0  0  0  0
 21 22  1  0  0  0  0
 21 91  1  0  0  0  0
 21 92  1  0  0  0  0
 22 23  1  0  0  0  0
 22 93  1  0  0  0  0
 23 24  2  0  0  0  0
 23 25  1  0  0  0  0
 25 26  1  0  0  0  0
 26 27  1  0  0  0  0
 26 42  1  0  0  0  0
 26 94  1  0  0  0  0
 27 28  1  0  0  0  0
 27 29  1  0  0  0  0
 27 95  1  0  0  0  0
 28 96  1  0  0  0  0
 28 97  1  0  0  0  0
 28 98  1  0  0  0  0
 29 30  1  0  0  0  0
 29 99  1  0  0  0  0
 29100  1  0  0  0  0
 30 31  1  0  0  0  0
 30 41  1  0  0  0  0
 30101  1  0  0  0  0
 31 32  1  0  0  0  0
 31102  1  0  0  0  0
 31103  1  0  0  0  0
 32 33  1  0  0  0  0
 32104  1  0  0  0  0
 32105  1  0  0  0  0
 33 34  1  0  0  0  0
 33 38  1  0  0  0  0
 33106  1  0  0  0  0
 34 35  1  0  0  0  0
 35 36  1  0  0  0  0
 35107  1  0  0  0  0
 35108  1  0  0  0  0
 36 37  1  0  0  0  0
 36109  1  0  0  0  0
 36110  1  0  0  0  0
 37111  1  0  0  0  0
 38 39  1  0  0  0  0
 38 41  1  0  0  0  0
 38112  1  0  0  0  0
 39 40  1  0  0  0  0
 40113  1  0  0  0  0
 40114  1  0  0  0  0
 40115  1  0  0  0  0
 41116  1  0  0  0  0
 41117  1  0  0  0  0
 42 43  1  0  0  0  0
 42118  1  0  0  0  0
 42119  1  0  0  0  0
 43 44  2  0  0  0  0
 43 45  1  0  0  0  0
 45 46  1  0  0  0  0
 45 47  1  0  0  0  0
 45120  1  0  0  0  0
 46121  1  0  0  0  0
 46122  1  0  0  0  0
 46123  1  0  0  0  0
 47 48  2  0  0  0  0
 47124  1  0  0  0  0
 48 49  1  0  0  0  0
 48 50  1  0  0  0  0
 49125  1  0  0  0  0
 49126  1  0  0  0  0
 49127  1  0  0  0  0
 50 51  1  0  0  0  0
 50 52  1  0  0  0  0
 50128  1  0  0  0  0
 51129  1  0  0  0  0
 52 53  1  0  0  0  0
 52 55  1  0  0  0  0
 52130  1  0  0  0  0
 53 54  1  0  0  0  0
 54131  1  0  0  0  0
 54132  1  0  0  0  0
 54133  1  0  0  0  0
 55 56  2  0  0  0  0
 55 57  1  0  0  0  0
 57 58  1  0  0  0  0
 57 59  1  0  0  0  0
 57134  1  0  0  0  0
 58135  1  0  0  0  0
 58136  1  0  0  0  0
 58137  1  0  0  0  0
 59 60  1  0  0  0  0
 59138  1  0  0  0  0
 59139  1  0  0  0  0
 60 61  1  0  0  0  0
 60 62  1  0  0  0  0
 60140  1  0  0  0  0
 61141  1  0  0  0  0
 61142  1  0  0  0  0
 61143  1  0  0  0  0
 62 63  2  0  0  0  0
 62144  1  0  0  0  0
 63 64  1  0  0  0  0
 63145  1  0  0  0  0
 64 65  2  0  0  0  0
 64146  1  0  0  0  0
 65 66  1  0  0  0  0
 65147  1  0  0  0  0
 66 67  2  0  0  0  0
 66148  1  0  0  0  0
 67 68  1  0  0  0  0
 68149  1  0  0  0  0
 68150  1  0  0  0  0
 68151  1  0  0  0  0
M  END
