REMARK  Name = 
REMARK  12 active torsions:
REMARK  status: ('A' for Active; 'I' for Inactive)
REMARK    1  A    between atoms: C_1  and  C_2
REMARK    2  A    between atoms: C_2  and  C_3
REMARK    3  A    between atoms: C_4  and  C_5
REMARK    4  A    between atoms: C_5  and  C_6
REMARK    5  A    between atoms: C_6  and  C_7
REMARK    6  A    between atoms: C_7  and  C_8
REMARK    7  A    between atoms: C_9  and  C_10
REMARK    8  A    between atoms: C_10  and  C_11
REMARK    9  A    between atoms: C_11  and  C_12
REMARK   10  A    between atoms: C_12  and  C_13
REMARK   11  A    between atoms: C_14  and  C_15
REMARK   12  A    between atoms: C_15  and  O_16
REMARK                            x       y       z     vdW  Elec       q    Type
REMARK                         _______ _______ _______ _____ _____    ______ ____
ROOT
ATOM      1  C   UNL     1       2.669  -3.544  -3.072  0.00  0.00    +0.000 C 
ATOM      2  C   UNL     1       3.175  -4.041  -4.416  0.00  0.00    +0.000 C 
ATOM      3  C   UNL     1       1.887  -4.348  -2.301  0.00  0.00    +0.000 C 
ENDROOT
BRANCH   1   4
ATOM      4  C   UNL     1       3.036  -2.151  -2.589  0.00  0.00    +0.000 C 
BRANCH   4   5
ATOM      5  C   UNL     1       1.769  -1.337  -2.378  0.00  0.00    +0.000 C 
BRANCH   5   9
ATOM      6  C   UNL     1       1.073   0.045   0.051  0.00  0.00    +0.000 C 
ATOM      7  C   UNL     1       0.567  -1.367  -0.192  0.00  0.00    +0.000 C 
ATOM      8  C   UNL     1      -0.307  -2.050   0.848  0.00  0.00    +0.000 C 
ATOM      9  C   UNL     1       0.895  -2.020  -1.339  0.00  0.00    +0.000 C 
ENDBRANCH   5   9
ENDBRANCH   4   5
ENDBRANCH   1   4
BRANCH   3  10
ATOM     10  C   UNL     1       1.380  -3.851  -0.957  0.00  0.00    +0.000 C 
BRANCH  10  11
ATOM     11  C   UNL     1      -0.140  -3.851  -0.957  0.00  0.00    +0.000 C 
BRANCH  11  12
ATOM     12  C   UNL     1      -0.647  -5.264  -1.199  0.00  0.00    +0.000 C 
ATOM     13  C   UNL     1      -1.521  -5.947  -0.160  0.00  0.00    +0.000 C 
ATOM     14  C   UNL     1      -0.318  -5.917  -2.347  0.00  0.00    +0.000 C 
BRANCH  14  15
ATOM     15  C   UNL     1       0.556  -5.234  -3.386  0.00  0.00    +0.000 C 
BRANCH  15  16
ATOM     16  O   UNL     1       1.739  -5.994  -3.583  0.00  0.00    +0.000 OA
ATOM     17  H   UNL     1       2.239  -6.061  -2.719  0.00  0.00    +0.000 HD
ENDBRANCH  15  16
ENDBRANCH  14  15
ENDBRANCH  11  12
ENDBRANCH  10  11
ENDBRANCH   3  10
TORSDOF 8
