REMARK  Name = 
REMARK  27 active torsions:
REMARK  status: ('A' for Active; 'I' for Inactive)
REMARK    1  A    between atoms: C_1  and  C_2
REMARK    2  A    between atoms: C_2  and  C_3
REMARK    3  A    between atoms: C_2  and  C_4
REMARK    4  A    between atoms: C_4  and  C_6
REMARK    5  A    between atoms: C_6  and  C_7
REMARK    6  A    between atoms: C_7  and  C_8
REMARK    7  A    between atoms: C_8  and  C_9
REMARK    8  A    between atoms: C_11  and  O_12
REMARK    9  A    between atoms: C_13  and  C_14
REMARK   10  A    between atoms: C_20  and  C_21
REMARK   11  A    between atoms: C_24  and  O_25
REMARK   12  A    between atoms: O_25  and  C_26
REMARK   13  A    between atoms: C_28  and  C_29
REMARK   14  A    between atoms: C_29  and  O_30
REMARK   15  A    between atoms: C_31  and  O_32
REMARK   16  A    between atoms: C_33  and  O_34
REMARK   17  A    between atoms: C_35  and  O_36
REMARK   18  A    between atoms: O_36  and  C_37
REMARK   19  A    between atoms: C_39  and  C_40
REMARK   20  A    between atoms: C_40  and  O_41
REMARK   21  A    between atoms: C_42  and  O_43
REMARK   22  A    between atoms: C_44  and  O_45
REMARK   23  A    between atoms: C_46  and  O_47
REMARK   24  A    between atoms: C_48  and  C_49
REMARK   25  A    between atoms: C_48  and  C_50
REMARK   26  A    between atoms: C_54  and  C_55
REMARK   27  A    between atoms: C_56  and  O_57
REMARK                            x       y       z     vdW  Elec       q    Type
REMARK                         _______ _______ _______ _____ _____    ______ ____
ROOT
ATOM      1  C   UNL     1      -0.011   2.910  -0.740  0.00  0.00    +0.000 C 
ATOM      2  C   UNL     1       0.844   2.959   0.515  0.00  0.00    +0.000 C 
ATOM      3  C   UNL     1       0.405   1.681  -1.451  0.00  0.00    +0.000 C 
ATOM      4  C   UNL     1       1.205   0.803  -0.487  0.00  0.00    +0.000 C 
ATOM      5  C   UNL     1       2.451   0.447  -1.089  0.00  0.00    +0.000 C 
ATOM      6  C   UNL     1       3.091  -0.220  -2.296  0.00  0.00    +0.000 C 
ATOM      7  C   UNL     1       0.905   5.160  -0.456  0.00  0.00    +0.000 C 
ATOM      8  C   UNL     1       2.117   5.660  -1.026  0.00  0.00    +0.000 C 
ATOM      9  O   UNL     1       2.571   5.263  -2.145  0.00  0.00    +0.000 OA
ATOM     10  C   UNL     1       2.772   6.645  -0.225  0.00  0.00    +0.000 C 
ATOM     11  C   UNL     1       4.250   6.718  -0.614  0.00  0.00    +0.000 C 
ATOM     12  C   UNL     1       4.986   5.744   0.130  0.00  0.00    +0.000 C 
ATOM     13  C   UNL     1       3.890   6.058   1.135  0.00  0.00    +0.000 C 
ATOM     14  C   UNL     1       6.395   5.775  -0.109  0.00  0.00    +0.000 C 
ATOM     15  C   UNL     1       7.060   4.597   0.607  0.00  0.00    +0.000 C 
ATOM     16  C   UNL     1       6.701   3.378  -0.049  0.00  0.00    +0.000 C 
ATOM     17  C   UNL     1       7.164   2.202   0.618  0.00  0.00    +0.000 C 
ATOM     18  C   UNL     1       8.679   2.248   0.735  0.00  0.00    +0.000 C 
ATOM     19  C   UNL     1       6.551   2.132   2.007  0.00  0.00    +0.000 C 
ATOM     20  C   UNL     1       6.751   0.966  -0.184  0.00  0.00    +0.000 C 
ATOM     21  C   UNL     1       5.474   0.511   0.268  0.00  0.00    +0.000 C 
ATOM     22  C   UNL     1       4.741  -0.228  -0.712  0.00  0.00    +0.000 C 
ATOM     23  C   UNL     1       3.284  -0.366  -0.261  0.00  0.00    +0.000 C 
ATOM     24  C   UNL     1       2.894  -1.648   0.457  0.00  0.00    +0.000 C 
ATOM     25  C   UNL     1       0.243   4.190  -1.437  0.00  0.00    +0.000 C 
ENDROOT
BRANCH  25  26
ATOM     26  O   UNL     1       1.095   3.973  -2.552  0.00  0.00    +0.000 OA
ATOM     27  H   UNL     1       1.963   3.588  -2.238  0.00  0.00    +0.000 HD
ENDBRANCH  25  26
BRANCH   4  28
ATOM     28  O   UNL     1       0.466  -0.375  -0.196  0.00  0.00    +0.000 OA
ATOM     29  H   UNL     1       0.296  -0.879  -1.043  0.00  0.00    +0.000 HD
ENDBRANCH   4  28
BRANCH  16  30
ATOM     30  O   UNL     1       5.282   3.317  -0.055  0.00  0.00    +0.000 OA
BRANCH  30  31
ATOM     31  C   UNL     1       4.804   3.302   1.282  0.00  0.00    +0.000 C 
ATOM     32  O   UNL     1       5.370   2.084   2.016  0.00  0.00    +0.000 OA
ATOM     33  C   UNL     1       6.795   2.181   2.070  0.00  0.00    +0.000 C 
ATOM     34  C   UNL     1       7.275   3.329   2.772  0.00  0.00    +0.000 C 
ATOM     35  C   UNL     1       6.786   4.597   2.069  0.00  0.00    +0.000 C 
ATOM     36  C   UNL     1       5.256   4.577   2.003  0.00  0.00    +0.000 C 
BRANCH  34  37
ATOM     37  O   UNL     1       8.695   3.314   2.788  0.00  0.00    +0.000 OA
ATOM     38  H   UNL     1       9.040   3.329   1.850  0.00  0.00    +0.000 HD
ENDBRANCH  34  37
BRANCH  35  39
ATOM     39  O   UNL     1       7.320   4.651   0.754  0.00  0.00    +0.000 OA
ATOM     40  H   UNL     1       7.020   3.848   0.239  0.00  0.00    +0.000 HD
ENDBRANCH  35  39
BRANCH  36  41
ATOM     41  O   UNL     1       4.791   5.717   1.295  0.00  0.00    +0.000 OA
BRANCH  41  42
ATOM     42  C   UNL     1       5.321   5.705  -0.022  0.00  0.00    +0.000 C 
ATOM     43  O   UNL     1       6.850   5.726   0.041  0.00  0.00    +0.000 OA
ATOM     44  C   UNL     1       7.315   4.547   0.702  0.00  0.00    +0.000 C 
ATOM     45  C   UNL     1       6.958   3.330   0.044  0.00  0.00    +0.000 C 
ATOM     46  C   UNL     1       5.433   3.213  -0.019  0.00  0.00    +0.000 C 
ATOM     47  C   UNL     1       4.865   4.435  -0.747  0.00  0.00    +0.000 C 
BRANCH  47  48
ATOM     48  O   UNL     1       3.446   4.372  -0.756  0.00  0.00    +0.000 OA
ATOM     49  H   UNL     1       3.108   4.357   0.185  0.00  0.00    +0.000 HD
ENDBRANCH  47  48
BRANCH  46  50
ATOM     50  O   UNL     1       4.904   3.152   1.297  0.00  0.00    +0.000 OA
ATOM     51  H   UNL     1       5.154   3.982   1.796  0.00  0.00    +0.000 HD
ENDBRANCH  46  50
BRANCH  45  52
ATOM     52  O   UNL     1       7.488   2.228   0.765  0.00  0.00    +0.000 OA
ATOM     53  H   UNL     1       7.115   2.226   1.693  0.00  0.00    +0.000 HD
ENDBRANCH  45  52
BRANCH  44  54
ATOM     54  C   UNL     1       6.648   4.518   2.068  0.00  0.00    +0.000 C 
BRANCH  54  55
ATOM     55  O   UNL     1       7.093   3.378   2.788  0.00  0.00    +0.000 OA
ATOM     56  H   UNL     1       6.853   2.550   2.283  0.00  0.00    +0.000 HD
ENDBRANCH  54  55
ENDBRANCH  44  54
ENDBRANCH  41  42
ENDBRANCH  36  41
BRANCH  33  57
ATOM     57  C   UNL     1       7.280   2.309   0.635  0.00  0.00    +0.000 C 
BRANCH  57  58
ATOM     58  O   UNL     1       8.698   2.382   0.620  0.00  0.00    +0.000 OA
ATOM     59  H   UNL     1       8.997   3.178   1.145  0.00  0.00    +0.000 HD
ENDBRANCH  57  58
ENDBRANCH  33  57
ENDBRANCH  30  31
ENDBRANCH  16  30
BRANCH   1  60
ATOM     60  C   UNL     1      -1.505   2.812  -0.481  0.00  0.00    +0.000 C 
BRANCH  60  61
ATOM     61  C   UNL     1      -1.872   1.369  -0.174  0.00  0.00    +0.000 C 
BRANCH  61  62
ATOM     62  C   UNL     1      -1.112   0.904   1.057  0.00  0.00    +0.000 C 
ATOM     63  O   UNL     1      -1.748   0.514   2.087  0.00  0.00    +0.000 OA
BRANCH  62  65
ATOM     64  C   UNL     1       0.915  -0.004  -0.052  0.00  0.00    +0.000 C 
ATOM     65  C   UNL     1       0.408   0.904   1.057  0.00  0.00    +0.000 C 
ATOM     66  C   UNL     1       0.915   2.318   0.826  0.00  0.00    +0.000 C 
ENDBRANCH  62  65
ENDBRANCH  61  62
ENDBRANCH  60  61
ENDBRANCH   1  60
TORSDOF 19
