
 OpenBabel03132512093D

127132  0  0  0  0  0  0  0  0999 V2000
    0.9146   -0.0037   -0.0519 C   0  0  0  0  0  0  0  0  0  0  0  0
    0.4079    0.9038    1.0572 C   0  0  0  0  0  0  0  0  0  0  0  0
    0.9146    2.3181    0.8260 C   0  0  0  0  0  0  0  0  0  0  0  0
   -1.1121    0.9038    1.0572 C   0  0  0  0  0  0  0  0  0  0  0  0
   -1.7475    0.5145    2.0867 O   0  0  0  0  0  0  0  0  0  0  0  0
   -1.8721    1.3693   -0.1740 C   0  0  0  0  0  0  0  0  0  0  0  0
   -1.5049    2.8121   -0.4806 C   0  0  0  0  0  0  0  0  0  0  0  0
   -0.0105    2.9103   -0.7404 C   0  0  0  0  0  0  0  0  0  0  0  0
    0.8444    2.9592    0.5155 C   0  0  0  0  0  0  0  0  0  0  0  0
    0.4047    1.6809   -1.4508 C   0  0  0  0  0  0  0  0  0  0  0  0
    1.2047    0.8028   -0.4870 C   0  0  0  0  0  0  0  0  0  0  0  0
    0.4663   -0.3748   -0.1963 O   0  0  0  0  0  0  0  0  0  0  0  0
    2.4508    0.4468   -1.0888 C   0  0  0  0  0  0  0  0  0  0  0  0
    3.0907   -0.2199   -2.2957 C   0  0  0  0  0  0  0  0  0  0  0  0
    0.9046    5.1599   -0.4558 C   0  0  0  0  0  0  0  0  0  0  0  0
    2.1169    5.6598   -1.0259 C   0  0  0  0  0  0  0  0  0  0  0  0
    2.5706    5.2635   -2.1449 O   0  0  0  0  0  0  0  0  0  0  0  0
    2.7723    6.6446   -0.2252 C   0  0  0  0  0  0  0  0  0  0  0  0
    4.2502    6.7175   -0.6139 C   0  0  0  0  0  0  0  0  0  0  0  0
    4.9862    5.7441    0.1297 C   0  0  0  0  0  0  0  0  0  0  0  0
    3.8902    6.0579    1.1350 C   0  0  0  0  0  0  0  0  0  0  0  0
    6.3952    5.7747   -0.1092 C   0  0  0  0  0  0  0  0  0  0  0  0
    7.0596    4.5966    0.6065 C   0  0  0  0  0  0  0  0  0  0  0  0
    6.7008    3.3782   -0.0491 C   0  0  0  0  0  0  0  0  0  0  0  0
    5.2821    3.3165   -0.0546 O   0  0  0  0  0  0  0  0  0  0  0  0
    4.8038    3.3020    1.2823 C   0  0  0  0  0  0  0  0  0  0  0  0
    5.3699    2.0838    2.0158 O   0  0  0  0  0  0  0  0  0  0  0  0
    6.7948    2.1806    2.0696 C   0  0  0  0  0  0  0  0  0  0  0  0
    7.2801    2.3091    0.6349 C   0  0  0  0  0  0  0  0  0  0  0  0
    8.6982    2.3816    0.6197 O   0  0  0  0  0  0  0  0  0  0  0  0
    7.2751    3.3285    2.7716 C   0  0  0  0  0  0  0  0  0  0  0  0
    8.6949    3.3137    2.7885 O   0  0  0  0  0  0  0  0  0  0  0  0
    6.7860    4.5971    2.0688 C   0  0  0  0  0  0  0  0  0  0  0  0
    7.3204    4.6512    0.7543 O   0  0  0  0  0  0  0  0  0  0  0  0
    5.2557    4.5767    2.0026 C   0  0  0  0  0  0  0  0  0  0  0  0
    4.7912    5.7171    1.2954 O   0  0  0  0  0  0  0  0  0  0  0  0
    5.3213    5.7055   -0.0219 C   0  0  0  0  0  0  0  0  0  0  0  0
    6.8504    5.7255    0.0410 O   0  0  0  0  0  0  0  0  0  0  0  0
    7.3149    4.5466    0.7021 C   0  0  0  0  0  0  0  0  0  0  0  0
    6.6482    4.5181    2.0678 C   0  0  0  0  0  0  0  0  0  0  0  0
    7.0933    3.3782    2.7881 O   0  0  0  0  0  0  0  0  0  0  0  0
    6.9579    3.3299    0.0437 C   0  0  0  0  0  0  0  0  0  0  0  0
    7.4881    2.2277    0.7650 O   0  0  0  0  0  0  0  0  0  0  0  0
    5.4331    3.2130   -0.0192 C   0  0  0  0  0  0  0  0  0  0  0  0
    4.9040    3.1523    1.2971 O   0  0  0  0  0  0  0  0  0  0  0  0
    4.8651    4.4353   -0.7472 C   0  0  0  0  0  0  0  0  0  0  0  0
    3.4465    4.3716   -0.7559 O   0  0  0  0  0  0  0  0  0  0  0  0
    7.1638    2.2018    0.6179 C   0  0  0  0  0  0  0  0  0  0  0  0
    8.6786    2.2480    0.7346 C   0  0  0  0  0  0  0  0  0  0  0  0
    6.5511    2.1324    2.0072 C   0  0  0  0  0  0  0  0  0  0  0  0
    6.7510    0.9658   -0.1842 C   0  0  0  0  0  0  0  0  0  0  0  0
    5.4739    0.5108    0.2679 C   0  0  0  0  0  0  0  0  0  0  0  0
    4.7407   -0.2277   -0.7120 C   0  0  0  0  0  0  0  0  0  0  0  0
    3.2844   -0.3660   -0.2610 C   0  0  0  0  0  0  0  0  0  0  0  0
    2.8936   -1.6477    0.4566 C   0  0  0  0  0  0  0  0  0  0  0  0
    0.2430    4.1897   -1.4368 C   0  0  0  0  0  0  0  0  0  0  0  0
    1.0954    3.9729   -2.5516 O   0  0  0  0  0  0  0  0  0  0  0  0
    0.5579    0.3531   -0.9955 H   0  0  0  0  0  0  0  0  0  0  0  0
    0.5579   -0.9993    0.1109 H   0  0  0  0  0  0  0  0  0  0  0  0
    1.9846   -0.0037   -0.0519 H   0  0  0  0  0  0  0  0  0  0  0  0
    0.7646    0.5470    2.0009 H   0  0  0  0  0  0  0  0  0  0  0  0
    0.5579    2.6749   -0.1176 H   0  0  0  0  0  0  0  0  0  0  0  0
    0.5579    2.9568    1.6068 H   0  0  0  0  0  0  0  0  0  0  0  0
    1.9846    2.3181    0.8260 H   0  0  0  0  0  0  0  0  0  0  0  0
   -1.6136    0.7506   -1.0078 H   0  0  0  0  0  0  0  0  0  0  0  0
   -2.9240    1.3002    0.0089 H   0  0  0  0  0  0  0  0  0  0  0  0
   -2.0399    3.1398   -1.3474 H   0  0  0  0  0  0  0  0  0  0  0  0
   -1.7634    3.4308    0.3532 H   0  0  0  0  0  0  0  0  0  0  0  0
    0.5726    3.8141    1.0988 H   0  0  0  0  0  0  0  0  0  0  0  0
    0.6857    2.0705    1.0898 H   0  0  0  0  0  0  0  0  0  0  0  0
    1.8765    3.0276    0.2419 H   0  0  0  0  0  0  0  0  0  0  0  0
   -0.4582    1.1506   -1.7956 H   0  0  0  0  0  0  0  0  0  0  0  0
    1.0136    1.9394   -2.2918 H   0  0  0  0  0  0  0  0  0  0  0  0
    1.3874    1.3422    0.4188 H   0  0  0  0  0  0  0  0  0  0  0  0
    0.2956   -0.8788   -1.0430 H   0  0  0  0  0  0  0  0  0  0  0  0
    2.7640   -1.2370   -2.3563 H   0  0  0  0  0  0  0  0  0  0  0  0
    2.8030    0.3008   -3.1851 H   0  0  0  0  0  0  0  0  0  0  0  0
    4.1556   -0.1927   -2.1952 H   0  0  0  0  0  0  0  0  0  0  0  0
    0.4836    5.8729    0.2220 H   0  0  0  0  0  0  0  0  0  0  0  0
    2.3139    7.5979   -0.3865 H   0  0  0  0  0  0  0  0  0  0  0  0
    2.6880    6.3782    0.8076 H   0  0  0  0  0  0  0  0  0  0  0  0
    4.5646    7.6397   -1.0560 H   0  0  0  0  0  0  0  0  0  0  0  0
    3.0261    5.4655    0.9172 H   0  0  0  0  0  0  0  0  0  0  0  0
    4.2368    5.8335    2.1222 H   0  0  0  0  0  0  0  0  0  0  0  0
    3.6361    7.0955    1.0735 H   0  0  0  0  0  0  0  0  0  0  0  0
    6.5804    5.7037   -1.1606 H   0  0  0  0  0  0  0  0  0  0  0  0
    6.8002    6.6925    0.2630 H   0  0  0  0  0  0  0  0  0  0  0  0
    8.1226    4.7164    0.5805 H   0  0  0  0  0  0  0  0  0  0  0  0
    6.7295    4.5650    1.6239 H   0  0  0  0  0  0  0  0  0  0  0  0
    7.1160    3.3916   -1.0351 H   0  0  0  0  0  0  0  0  0  0  0  0
    3.7350    3.2527    1.2741 H   0  0  0  0  0  0  0  0  0  0  0  0
    7.1728    1.3061    2.5568 H   0  0  0  0  0  0  0  0  0  0  0  0
    6.9606    1.4567    0.0726 H   0  0  0  0  0  0  0  0  0  0  0  0
    6.8728    3.1972    0.1988 H   0  0  0  0  0  0  0  0  0  0  0  0
    8.9968    3.1783    1.1452 H   0  0  0  0  0  0  0  0  0  0  0  0
    6.9066    3.3125    3.7760 H   0  0  0  0  0  0  0  0  0  0  0  0
    9.0396    3.3287    1.8499 H   0  0  0  0  0  0  0  0  0  0  0  0
    7.1093    5.4574    2.6168 H   0  0  0  0  0  0  0  0  0  0  0  0
    7.0202    3.8484    0.2391 H   0  0  0  0  0  0  0  0  0  0  0  0
    4.8536    4.5901    2.9941 H   0  0  0  0  0  0  0  0  0  0  0  0
    4.9714    6.5674   -0.5506 H   0  0  0  0  0  0  0  0  0  0  0  0
    8.3820    4.5945    0.7643 H   0  0  0  0  0  0  0  0  0  0  0  0
    6.9054    5.4047    2.6088 H   0  0  0  0  0  0  0  0  0  0  0  0
    5.5863    4.4704    1.9454 H   0  0  0  0  0  0  0  0  0  0  0  0
    6.8530    2.5496    2.2825 H   0  0  0  0  0  0  0  0  0  0  0  0
    7.3568    3.3312   -0.9492 H   0  0  0  0  0  0  0  0  0  0  0  0
    7.1154    2.2263    1.6930 H   0  0  0  0  0  0  0  0  0  0  0  0
    5.1638    2.3234   -0.5491 H   0  0  0  0  0  0  0  0  0  0  0  0
    5.1539    3.9825    1.7955 H   0  0  0  0  0  0  0  0  0  0  0  0
    5.2224    4.4502   -1.7557 H   0  0  0  0  0  0  0  0  0  0  0  0
    3.1077    4.3575    0.1849 H   0  0  0  0  0  0  0  0  0  0  0  0
    8.9670    3.1125    1.2954 H   0  0  0  0  0  0  0  0  0  0  0  0
    9.0249    1.3672    1.2337 H   0  0  0  0  0  0  0  0  0  0  0  0
    9.1104    2.2969   -0.2432 H   0  0  0  0  0  0  0  0  0  0  0  0
    5.4847    2.1001    1.9254 H   0  0  0  0  0  0  0  0  0  0  0  0
    6.8974    1.2515    2.5061 H   0  0  0  0  0  0  0  0  0  0  0  0
    6.8398    2.9968    2.5679 H   0  0  0  0  0  0  0  0  0  0  0  0
    7.2842    0.1819   -0.6802 H   0  0  0  0  0  0  0  0  0  0  0  0
    5.6537   -0.1541    1.0867 H   0  0  0  0  0  0  0  0  0  0  0  0
    4.8932    1.3639    0.5505 H   0  0  0  0  0  0  0  0  0  0  0  0
    4.7769    0.2881   -1.6487 H   0  0  0  0  0  0  0  0  0  0  0  0
    5.1735   -1.1999   -0.8236 H   0  0  0  0  0  0  0  0  0  0  0  0
    2.0938   -1.4453    1.1380 H   0  0  0  0  0  0  0  0  0  0  0  0
    2.5757   -2.3754   -0.2605 H   0  0  0  0  0  0  0  0  0  0  0  0
    3.7363   -2.0246    0.9977 H   0  0  0  0  0  0  0  0  0  0  0  0
   -0.6825    4.6015   -1.7814 H   0  0  0  0  0  0  0  0  0  0  0  0
    1.9633    3.5878   -2.2378 H   0  0  0  0  0  0  0  0  0  0  0  0
  1  2  1  0  0  0  0
  1 58  1  0  0  0  0
  1 59  1  0  0  0  0
  1 60  1  0  0  0  0
  2  3  1  0  0  0  0
  2  4  1  0  0  0  0
  2 61  1  0  0  0  0
  3 62  1  0  0  0  0
  3 63  1  0  0  0  0
  3 64  1  0  0  0  0
  4  5  2  0  0  0  0
  4  6  1  0  0  0  0
  6  7  1  0  0  0  0
  6 65  1  0  0  0  0
  6 66  1  0  0  0  0
  7  8  1  0  0  0  0
  7 67  1  0  0  0  0
  7 68  1  0  0  0  0
  8  9  1  0  0  0  0
  8 10  1  0  0  0  0
  8 56  1  0  0  0  0
  9 69  1  0  0  0  0
  9 70  1  0  0  0  0
  9 71  1  0  0  0  0
 10 11  1  0  0  0  0
 10 72  1  0  0  0  0
 10 73  1  0  0  0  0
 11 12  1  0  0  0  0
 11 13  1  0  0  0  0
 11 74  1  0  0  0  0
 12 75  1  0  0  0  0
 13 14  1  0  0  0  0
 13 15  1  0  0  0  0
 13 54  1  0  0  0  0
 14 76  1  0  0  0  0
 14 77  1  0  0  0  0
 14 78  1  0  0  0  0
 15 16  1  0  0  0  0
 15 56  1  0  0  0  0
 15 79  1  0  0  0  0
 16 17  2  0  0  0  0
 16 18  1  0  0  0  0
 18 19  1  0  0  0  0
 18 80  1  0  0  0  0
 18 81  1  0  0  0  0
 19 20  1  0  0  0  0
 19 54  1  0  0  0  0
 19 82  1  0  0  0  0
 20 21  1  0  0  0  0
 20 22  1  0  0  0  0
 20 51  1  0  0  0  0
 21 83  1  0  0  0  0
 21 84  1  0  0  0  0
 21 85  1  0  0  0  0
 22 23  1  0  0  0  0
 22 86  1  0  0  0  0
 22 87  1  0  0  0  0
 23 24  1  0  0  0  0
 23 88  1  0  0  0  0
 23 89  1  0  0  0  0
 24 25  1  0  0  0  0
 24 48  1  0  0  0  0
 24 90  1  0  0  0  0
 25 26  1  0  0  0  0
 26 27  1  0  0  0  0
 26 35  1  0  0  0  0
 26 91  1  0  0  0  0
 27 28  1  0  0  0  0
 28 29  1  0  0  0  0
 28 31  1  0  0  0  0
 28 92  1  0  0  0  0
 29 30  1  0  0  0  0
 29 93  1  0  0  0  0
 29 94  1  0  0  0  0
 30 95  1  0  0  0  0
 31 32  1  0  0  0  0
 31 33  1  0  0  0  0
 31 96  1  0  0  0  0
 32 97  1  0  0  0  0
 33 34  1  0  0  0  0
 33 35  1  0  0  0  0
 33 98  1  0  0  0  0
 34 99  1  0  0  0  0
 35 36  1  0  0  0  0
 35100  1  0  0  0  0
 36 37  1  0  0  0  0
 37 38  1  0  0  0  0
 37 46  1  0  0  0  0
 37101  1  0  0  0  0
 38 39  1  0  0  0  0
 39 40  1  0  0  0  0
 39 42  1  0  0  0  0
 39102  1  0  0  0  0
 40 41  1  0  0  0  0
 40103  1  0  0  0  0
 40104  1  0  0  0  0
 41105  1  0  0  0  0
 42 43  1  0  0  0  0
 42 44  1  0  0  0  0
 42106  1  0  0  0  0
 43107  1  0  0  0  0
 44 45  1  0  0  0  0
 44 46  1  0  0  0  0
 44108  1  0  0  0  0
 45109  1  0  0  0  0
 46 47  1  0  0  0  0
 46110  1  0  0  0  0
 47111  1  0  0  0  0
 48 49  1  0  0  0  0
 48 50  1  0  0  0  0
 48 51  1  0  0  0  0
 49112  1  0  0  0  0
 49113  1  0  0  0  0
 49114  1  0  0  0  0
 50115  1  0  0  0  0
 50116  1  0  0  0  0
 50117  1  0  0  0  0
 51 52  1  0  0  0  0
 51118  1  0  0  0  0
 52 53  1  0  0  0  0
 52119  1  0  0  0  0
 52120  1  0  0  0  0
 53 54  1  0  0  0  0
 53121  1  0  0  0  0
 53122  1  0  0  0  0
 54 55  1  0  0  0  0
 55123  1  0  0  0  0
 55124  1  0  0  0  0
 55125  1  0  0  0  0
 56 57  1  0  0  0  0
 56126  1  0  0  0  0
 57127  1  0  0  0  0
M  END
