REMARK  Name = 
REMARK  13 active torsions:
REMARK  status: ('A' for Active; 'I' for Inactive)
REMARK    1  A    between atoms: C_1  and  C_2
REMARK    2  A    between atoms: C_4  and  C_5
REMARK    3  A    between atoms: C_10  and  O_11
REMARK    4  A    between atoms: C_17  and  C_18
REMARK    5  A    between atoms: C_18  and  C_19
REMARK    6  A    between atoms: C_19  and  C_20
REMARK    7  A    between atoms: C_19  and  O_21
REMARK    8  A    between atoms: C_19  and  C_22
REMARK    9  A    between atoms: C_22  and  C_23
REMARK   10  A    between atoms: C_23  and  O_25
REMARK   11  A    between atoms: C_26  and  O_27
REMARK   12  A    between atoms: C_32  and  O_33
REMARK   13  A    between atoms: C_34  and  O_35
REMARK                            x       y       z     vdW  Elec       q    Type
REMARK                         _______ _______ _______ _____ _____    ______ ____
ROOT
ATOM      1  C   UNL     1       0.570   1.137   1.986  0.00  0.00    +0.000 A 
ATOM      2  C   UNL     1       1.160   1.347   3.228  0.00  0.00    +0.000 A 
ATOM      3  C   UNL     1       1.898   0.340   3.822  0.00  0.00    +0.000 A 
ATOM      4  C   UNL     1       2.037  -0.887   3.173  0.00  0.00    +0.000 A 
ATOM      5  C   UNL     1       1.441  -1.099   1.921  0.00  0.00    +0.000 A 
ATOM      6  C   UNL     1       0.707  -0.071   1.338  0.00  0.00    +0.000 A 
ATOM      7  C   UNL     1       1.570  -2.280   1.280  0.00  0.00    +0.000 C 
ATOM      8  O   UNL     1       1.007  -2.414   0.148  0.00  0.00    +0.000 OA
ATOM      9  C   UNL     1       2.265  -3.324   1.774  0.00  0.00    +0.000 A 
ATOM     10  C   UNL     1       2.348  -4.506   1.050  0.00  0.00    +0.000 A 
ATOM     11  C   UNL     1       3.063  -5.584   1.560  0.00  0.00    +0.000 A 
ATOM     12  C   UNL     1       3.700  -5.487   2.802  0.00  0.00    +0.000 A 
ATOM     13  C   UNL     1       3.624  -4.330   3.523  0.00  0.00    +0.000 A 
ATOM     14  C   UNL     1       2.909  -3.241   3.020  0.00  0.00    +0.000 A 
ATOM     15  C   UNL     1       2.815  -1.983   3.786  0.00  0.00    +0.000 C 
ATOM     16  O   UNL     1       3.377  -1.848   4.918  0.00  0.00    +0.000 OA
ENDROOT
BRANCH   1  20
ATOM     17  C   UNL     1       0.928  -0.016   0.068  0.00  0.00    +0.000 C 
ATOM     18  C   UNL     1       0.422   1.157  -0.756  0.00  0.00    +0.000 C 
ATOM     19  O   UNL     1      -0.779   1.585   0.092  0.00  0.00    +0.000 OA
ATOM     20  C   UNL     1      -0.316   2.171   1.311  0.00  0.00    +0.000 C 
ATOM     21  C   UNL     1       0.482   3.342   1.128  0.00  0.00    +0.000 C 
ATOM     22  C   UNL     1       1.734   2.985   0.322  0.00  0.00    +0.000 C 
ATOM     23  C   UNL     1       1.311   2.377  -1.018  0.00  0.00    +0.000 C 
BRANCH  22  24
ATOM     24  O   UNL     1       2.517   2.048   1.047  0.00  0.00    +0.000 OA
ATOM     25  H   UNL     1       1.980   1.221   1.211  0.00  0.00    +0.000 HD
ENDBRANCH  22  24
BRANCH  23  26
ATOM     26  O   UNL     1       2.463   1.982  -1.749  0.00  0.00    +0.000 OA
ATOM     27  H   UNL     1       2.975   1.303  -1.223  0.00  0.00    +0.000 HD
ENDBRANCH  23  26
ENDBRANCH   1  20
BRANCH   6  28
ATOM     28  O   UNL     1       0.096  -0.267   0.071  0.00  0.00    +0.000 OA
ATOM     29  H   UNL     1      -0.433   0.471  -0.349  0.00  0.00    +0.000 HD
ENDBRANCH   6  28
BRANCH  13  30
ATOM     30  O   UNL     1       4.272  -4.233   4.783  0.00  0.00    +0.000 OA
ATOM     31  H   UNL     1       4.216  -3.385   5.311  0.00  0.00    +0.000 HD
ENDBRANCH  13  30
BRANCH  12  32
ATOM     32  C   UNL     1       4.479  -6.672   3.350  0.00  0.00    +0.000 C 
BRANCH  32  33
ATOM     33  C   UNL     1       3.547  -7.862   3.507  0.00  0.00    +0.000 C 
ATOM     34  C   UNL     1       2.957  -8.225   2.154  0.00  0.00    +0.000 C 
BRANCH  33  35
ATOM     35  O   UNL     1       4.275  -8.969   4.018  0.00  0.00    +0.000 OA
ATOM     36  H   UNL     1       5.012  -9.204   3.385  0.00  0.00    +0.000 HD
ENDBRANCH  33  35
BRANCH  33  37
ATOM     37  C   UNL     1       2.426  -7.504   4.469  0.00  0.00    +0.000 C 
BRANCH  37  38
ATOM     38  C   UNL     1       3.016  -7.141   5.822  0.00  0.00    +0.000 C 
ATOM     39  O   UNL     1       2.816  -5.986   6.313  0.00  0.00    +0.000 OA
BRANCH  38  40
ATOM     40  O   UNL     1       3.792  -8.092   6.537  0.00  0.00    +0.000 OA
ATOM     41  H   UNL     1       4.180  -7.853   7.427  0.00  0.00    +0.000 HD
ENDBRANCH  38  40
ENDBRANCH  37  38
ENDBRANCH  33  37
ENDBRANCH  32  33
ENDBRANCH  12  32
TORSDOF 11
