
 OpenBabel03132514253D

 61 64  0  0  0  0  0  0  0  0999 V2000
    0.9712    0.0781   -0.0554 C   0  0  0  0  0  0  0  0  0  0  0  0
    0.4645   -0.0227   -1.4850 C   0  0  0  0  0  0  0  0  0  0  0  0
    0.9237    1.2023   -2.2793 O   0  0  0  0  0  0  0  0  0  0  0  0
    2.3517    1.2281   -2.3308 C   0  0  0  0  0  0  0  0  0  0  0  0
    2.8428    1.2142   -0.8924 C   0  0  0  0  0  0  0  0  0  0  0  0
    4.2076    1.2848   -0.6302 C   0  0  0  0  0  0  0  0  0  0  0  0
    4.6620    1.2658    0.6754 C   0  0  0  0  0  0  0  0  0  0  0  0
    3.7449    1.1868    1.7237 C   0  0  0  0  0  0  0  0  0  0  0  0
    2.3694    1.1168    1.4589 C   0  0  0  0  0  0  0  0  0  0  0  0
    1.9322    1.1322    0.1378 C   0  0  0  0  0  0  0  0  0  0  0  0
    0.5432    1.0631   -0.1490 O   0  0  0  0  0  0  0  0  0  0  0  0
    1.4711    1.0362    2.4634 C   0  0  0  0  0  0  0  0  0  0  0  0
    0.2376    0.9772    2.1633 O   0  0  0  0  0  0  0  0  0  0  0  0
    1.8118    1.0150    3.7674 C   0  0  0  0  0  0  0  0  0  0  0  0
    0.8235    0.9313    4.7399 C   0  0  0  0  0  0  0  0  0  0  0  0
    1.1747    0.9104    6.0855 C   0  0  0  0  0  0  0  0  0  0  0  0
    2.5190    0.9741    6.4681 C   0  0  0  0  0  0  0  0  0  0  0  0
    2.8901    0.9504    7.9419 C   0  0  0  0  0  0  0  0  0  0  0  0
    2.2508    2.1370    8.6445 C   0  0  0  0  0  0  0  0  0  0  0  0
    0.7397    2.0567    8.5012 C   0  0  0  0  0  0  0  0  0  0  0  0
    2.5974    2.1149   10.0214 O   0  0  0  0  0  0  0  0  0  0  0  0
    2.7514    3.4276    8.0167 C   0  0  0  0  0  0  0  0  0  0  0  0
    4.2625    3.5079    8.1600 C   0  0  0  0  0  0  0  0  0  0  0  0
    4.9961    3.5802    7.1247 O   0  0  0  0  0  0  0  0  0  0  0  0
    4.8545    3.5021    9.4507 O   0  0  0  0  0  0  0  0  0  0  0  0
    3.4983    1.0575    5.5202 C   0  0  0  0  0  0  0  0  0  0  0  0
    4.8620    1.1221    5.9107 O   0  0  0  0  0  0  0  0  0  0  0  0
    3.1572    1.0793    4.1667 C   0  0  0  0  0  0  0  0  0  0  0  0
    4.2023    1.1701    3.1278 C   0  0  0  0  0  0  0  0  0  0  0  0
    5.4359    1.2310    3.4274 O   0  0  0  0  0  0  0  0  0  0  0  0
    2.9324    0.0930   -2.9756 C   0  0  0  0  0  0  0  0  0  0  0  0
    2.5545   -1.1769   -2.2095 C   0  0  0  0  0  0  0  0  0  0  0  0
    3.0882   -1.1184   -0.8949 O   0  0  0  0  0  0  0  0  0  0  0  0
    1.0281   -1.2872   -2.1415 C   0  0  0  0  0  0  0  0  0  0  0  0
    0.6634   -2.4272   -1.3775 O   0  0  0  0  0  0  0  0  0  0  0  0
    0.6145   -0.7580    0.5091 H   0  0  0  0  0  0  0  0  0  0  0  0
    0.6145    0.9850    0.3863 H   0  0  0  0  0  0  0  0  0  0  0  0
    2.0412    0.0781   -0.0554 H   0  0  0  0  0  0  0  0  0  0  0  0
   -0.6045   -0.0668   -1.4775 H   0  0  0  0  0  0  0  0  0  0  0  0
    2.6530    2.1069   -2.8618 H   0  0  0  0  0  0  0  0  0  0  0  0
    4.9050    1.3536   -1.4387 H   0  0  0  0  0  0  0  0  0  0  0  0
    5.7112    1.3115    0.8806 H   0  0  0  0  0  0  0  0  0  0  0  0
    0.2274    1.0740   -1.0978 H   0  0  0  0  0  0  0  0  0  0  0  0
   -0.2065    0.8830    4.4542 H   0  0  0  0  0  0  0  0  0  0  0  0
    0.4119    0.8451    6.8330 H   0  0  0  0  0  0  0  0  0  0  0  0
    2.5377    0.0420    8.3839 H   0  0  0  0  0  0  0  0  0  0  0  0
    3.9538    1.0070    8.0429 H   0  0  0  0  0  0  0  0  0  0  0  0
    0.3872    1.1483    8.9431 H   0  0  0  0  0  0  0  0  0  0  0  0
    0.2896    2.8920    8.9957 H   0  0  0  0  0  0  0  0  0  0  0  0
    0.4784    2.0734    7.4637 H   0  0  0  0  0  0  0  0  0  0  0  0
    2.2680    1.2659   10.4344 H   0  0  0  0  0  0  0  0  0  0  0  0
    2.4902    3.4442    6.9792 H   0  0  0  0  0  0  0  0  0  0  0  0
    2.3013    4.2629    8.5112 H   0  0  0  0  0  0  0  0  0  0  0  0
    5.8487    3.5549    9.5450 H   0  0  0  0  0  0  0  0  0  0  0  0
    5.5787    1.1832    5.2160 H   0  0  0  0  0  0  0  0  0  0  0  0
    3.9972    0.1971   -2.9908 H   0  0  0  0  0  0  0  0  0  0  0  0
    2.5664    0.0266   -3.9789 H   0  0  0  0  0  0  0  0  0  0  0  0
    2.9531   -2.0318   -2.7145 H   0  0  0  0  0  0  0  0  0  0  0  0
    2.7176   -0.3203   -0.4199 H   0  0  0  0  0  0  0  0  0  0  0  0
    0.6312   -1.3851   -3.1304 H   0  0  0  0  0  0  0  0  0  0  0  0
    1.0322   -2.3402   -0.4521 H   0  0  0  0  0  0  0  0  0  0  0  0
  1  2  1  0  0  0  0
  1 36  1  0  0  0  0
  1 37  1  0  0  0  0
  1 38  1  0  0  0  0
  2  3  1  0  0  0  0
  2 34  1  0  0  0  0
  2 39  1  0  0  0  0
  3  4  1  0  0  0  0
  4  5  1  0  0  0  0
  4 31  1  0  0  0  0
  4 40  1  0  0  0  0
  5  6  1  0  0  0  0
  5 10  2  0  0  0  0
  6  7  2  0  0  0  0
  6 41  1  0  0  0  0
  7  8  1  0  0  0  0
  7 42  1  0  0  0  0
  8  9  2  0  0  0  0
  8 29  1  0  0  0  0
  9 10  1  0  0  0  0
  9 12  1  0  0  0  0
 10 11  1  0  0  0  0
 11 43  1  0  0  0  0
 12 13  2  0  0  0  0
 12 14  1  0  0  0  0
 14 15  1  0  0  0  0
 14 28  2  0  0  0  0
 15 16  2  0  0  0  0
 15 44  1  0  0  0  0
 16 17  1  0  0  0  0
 16 45  1  0  0  0  0
 17 18  1  0  0  0  0
 17 26  2  0  0  0  0
 18 19  1  0  0  0  0
 18 46  1  0  0  0  0
 18 47  1  0  0  0  0
 19 20  1  0  0  0  0
 19 21  1  0  0  0  0
 19 22  1  0  0  0  0
 20 48  1  0  0  0  0
 20 49  1  0  0  0  0
 20 50  1  0  0  0  0
 21 51  1  0  0  0  0
 22 23  1  0  0  0  0
 22 52  1  0  0  0  0
 22 53  1  0  0  0  0
 23 24  2  0  0  0  0
 23 25  1  0  0  0  0
 25 54  1  0  0  0  0
 26 27  1  0  0  0  0
 26 28  1  0  0  0  0
 27 55  1  0  0  0  0
 28 29  1  0  0  0  0
 29 30  2  0  0  0  0
 31 32  1  0  0  0  0
 31 56  1  0  0  0  0
 31 57  1  0  0  0  0
 32 33  1  0  0  0  0
 32 34  1  0  0  0  0
 32 58  1  0  0  0  0
 33 59  1  0  0  0  0
 34 35  1  0  0  0  0
 34 60  1  0  0  0  0
 35 61  1  0  0  0  0
M  END
