REMARK  Name = 
REMARK  13 active torsions:
REMARK  status: ('A' for Active; 'I' for Inactive)
REMARK    1  A    between atoms: C_1  and  C_2
REMARK    2  A    between atoms: C_4  and  C_5
REMARK    3  A    between atoms: C_10  and  O_11
REMARK    4  A    between atoms: C_17  and  C_18
REMARK    5  A    between atoms: C_18  and  C_19
REMARK    6  A    between atoms: C_19  and  C_20
REMARK    7  A    between atoms: C_19  and  O_21
REMARK    8  A    between atoms: C_19  and  C_22
REMARK    9  A    between atoms: C_22  and  C_23
REMARK   10  A    between atoms: C_23  and  O_25
REMARK   11  A    between atoms: C_26  and  O_27
REMARK   12  A    between atoms: C_32  and  O_33
REMARK   13  A    between atoms: C_34  and  O_35
REMARK                            x       y       z     vdW  Elec       q    Type
REMARK                         _______ _______ _______ _____ _____    ______ ____
ROOT
ATOM      1  C   UNL     1       2.843   1.214  -0.892  0.00  0.00    +0.000 A 
ATOM      2  C   UNL     1       4.208   1.285  -0.630  0.00  0.00    +0.000 A 
ATOM      3  C   UNL     1       4.662   1.266   0.675  0.00  0.00    +0.000 A 
ATOM      4  C   UNL     1       3.745   1.187   1.724  0.00  0.00    +0.000 A 
ATOM      5  C   UNL     1       2.369   1.117   1.459  0.00  0.00    +0.000 A 
ATOM      6  C   UNL     1       1.932   1.132   0.138  0.00  0.00    +0.000 A 
ATOM      7  C   UNL     1       1.471   1.036   2.463  0.00  0.00    +0.000 C 
ATOM      8  O   UNL     1       0.238   0.977   2.163  0.00  0.00    +0.000 OA
ATOM      9  C   UNL     1       1.812   1.015   3.767  0.00  0.00    +0.000 A 
ATOM     10  C   UNL     1       0.824   0.931   4.740  0.00  0.00    +0.000 A 
ATOM     11  C   UNL     1       1.175   0.910   6.085  0.00  0.00    +0.000 A 
ATOM     12  C   UNL     1       2.519   0.974   6.468  0.00  0.00    +0.000 A 
ATOM     13  C   UNL     1       3.498   1.058   5.520  0.00  0.00    +0.000 A 
ATOM     14  C   UNL     1       3.157   1.079   4.167  0.00  0.00    +0.000 A 
ATOM     15  C   UNL     1       4.202   1.170   3.128  0.00  0.00    +0.000 C 
ATOM     16  O   UNL     1       5.436   1.231   3.427  0.00  0.00    +0.000 OA
ENDROOT
BRANCH   1  20
ATOM     17  C   UNL     1       0.971   0.078  -0.055  0.00  0.00    +0.000 C 
ATOM     18  C   UNL     1       0.465  -0.023  -1.485  0.00  0.00    +0.000 C 
ATOM     19  O   UNL     1       0.924   1.202  -2.279  0.00  0.00    +0.000 OA
ATOM     20  C   UNL     1       2.352   1.228  -2.331  0.00  0.00    +0.000 C 
ATOM     21  C   UNL     1       2.932   0.093  -2.976  0.00  0.00    +0.000 C 
ATOM     22  C   UNL     1       2.554  -1.177  -2.209  0.00  0.00    +0.000 C 
ATOM     23  C   UNL     1       1.028  -1.287  -2.142  0.00  0.00    +0.000 C 
BRANCH  22  24
ATOM     24  O   UNL     1       3.088  -1.118  -0.895  0.00  0.00    +0.000 OA
ATOM     25  H   UNL     1       2.718  -0.320  -0.420  0.00  0.00    +0.000 HD
ENDBRANCH  22  24
BRANCH  23  26
ATOM     26  O   UNL     1       0.663  -2.427  -1.377  0.00  0.00    +0.000 OA
ATOM     27  H   UNL     1       1.032  -2.340  -0.452  0.00  0.00    +0.000 HD
ENDBRANCH  23  26
ENDBRANCH   1  20
BRANCH   6  28
ATOM     28  O   UNL     1       0.543   1.063  -0.149  0.00  0.00    +0.000 OA
ATOM     29  H   UNL     1       0.227   1.074  -1.098  0.00  0.00    +0.000 HD
ENDBRANCH   6  28
BRANCH  13  30
ATOM     30  O   UNL     1       4.862   1.122   5.911  0.00  0.00    +0.000 OA
ATOM     31  H   UNL     1       5.579   1.183   5.216  0.00  0.00    +0.000 HD
ENDBRANCH  13  30
BRANCH  12  32
ATOM     32  C   UNL     1       2.890   0.950   7.942  0.00  0.00    +0.000 C 
BRANCH  32  33
ATOM     33  C   UNL     1       2.251   2.137   8.645  0.00  0.00    +0.000 C 
ATOM     34  C   UNL     1       0.740   2.057   8.501  0.00  0.00    +0.000 C 
BRANCH  33  35
ATOM     35  O   UNL     1       2.597   2.115  10.021  0.00  0.00    +0.000 OA
ATOM     36  H   UNL     1       2.268   1.266  10.434  0.00  0.00    +0.000 HD
ENDBRANCH  33  35
BRANCH  33  37
ATOM     37  C   UNL     1       2.751   3.428   8.017  0.00  0.00    +0.000 C 
BRANCH  37  38
ATOM     38  C   UNL     1       4.263   3.508   8.160  0.00  0.00    +0.000 C 
ATOM     39  O   UNL     1       4.996   3.580   7.125  0.00  0.00    +0.000 OA
BRANCH  38  40
ATOM     40  O   UNL     1       4.854   3.502   9.451  0.00  0.00    +0.000 OA
ATOM     41  H   UNL     1       5.849   3.555   9.545  0.00  0.00    +0.000 HD
ENDBRANCH  38  40
ENDBRANCH  37  38
ENDBRANCH  33  37
ENDBRANCH  32  33
ENDBRANCH  12  32
TORSDOF 11
