REMARK  Name = 
REMARK  4 active torsions:
REMARK  status: ('A' for Active; 'I' for Inactive)
REMARK    1  A    between atoms: C_1  and  C_2
REMARK    2  A    between atoms: C_2  and  C_3
REMARK    3  A    between atoms: C_4  and  C_5
REMARK    4  A    between atoms: C_5  and  N_6
REMARK                            x       y       z     vdW  Elec       q    Type
REMARK                         _______ _______ _______ _____ _____    ______ ____
ROOT
ATOM      1  N   UNL     1       2.972   3.221  -1.335  0.00  0.00    +0.000 NA
ATOM      2  C   UNL     1       3.788   2.327  -1.848  0.00  0.00    +0.000 C 
ATOM      3  N   UNL     1       3.476   0.895  -1.735  0.00  0.00    +0.000 N 
ATOM      4  N   UNL     1       5.013   2.760  -2.536  0.00  0.00    +0.000 N 
ATOM      5  H   UNL     1       4.109   0.202  -2.133  0.00  0.00    +0.000 HD
ATOM      6  H   UNL     1       2.626   0.595  -1.257  0.00  0.00    +0.000 HD
ATOM      7  H   UNL     1       5.230   3.753  -2.615  0.00  0.00    +0.000 HD
ATOM      8  H   UNL     1       5.647   2.066  -2.935  0.00  0.00    +0.000 HD
ENDROOT
BRANCH   1   9
ATOM      9  C   UNL     1       1.747   2.789  -0.647  0.00  0.00    +0.000 C 
BRANCH   9  13
ATOM     10  C   UNL     1       1.051   0.054  -0.067  0.00  0.00    +0.000 C 
ATOM     11  C   UNL     1       0.544   0.714  -1.339  0.00  0.00    +0.000 C 
ATOM     12  C   UNL     1      -0.330  -0.069  -2.305  0.00  0.00    +0.000 C 
ATOM     13  C   UNL     1       0.873   2.005  -1.613  0.00  0.00    +0.000 C 
ENDBRANCH   9  13
ENDBRANCH   1   9
TORSDOF 2
