REMARK  Name = 
REMARK  4 active torsions:
REMARK  status: ('A' for Active; 'I' for Inactive)
REMARK    1  A    between atoms: C_1  and  C_2
REMARK    2  A    between atoms: C_2  and  C_3
REMARK    3  A    between atoms: C_4  and  C_5
REMARK    4  A    between atoms: C_5  and  N_6
REMARK                            x       y       z     vdW  Elec       q    Type
REMARK                         _______ _______ _______ _____ _____    ______ ____
ROOT
ATOM      1  N   UNL     1       2.975  -2.221  -2.481  0.00  0.00    +0.000 NA
ATOM      2  C   UNL     1       3.792  -2.391  -1.464  0.00  0.00    +0.000 C 
ATOM      3  N   UNL     1       3.480  -1.787  -0.161  0.00  0.00    +0.000 N 
ATOM      4  N   UNL     1       5.017  -3.187  -1.631  0.00  0.00    +0.000 N 
ATOM      5  H   UNL     1       4.113  -1.919   0.627  0.00  0.00    +0.000 HD
ATOM      6  H   UNL     1       2.630  -1.235  -0.046  0.00  0.00    +0.000 HD
ATOM      7  H   UNL     1       5.234  -3.606  -2.535  0.00  0.00    +0.000 HD
ATOM      8  H   UNL     1       5.650  -3.319  -0.842  0.00  0.00    +0.000 HD
ENDROOT
BRANCH   1   9
ATOM      9  C   UNL     1       1.750  -1.425  -2.315  0.00  0.00    +0.000 C 
BRANCH   9  13
ATOM     10  C   UNL     1       1.055   0.070   0.047  0.00  0.00    +0.000 C 
ATOM     11  C   UNL     1       0.548  -1.353  -0.129  0.00  0.00    +0.000 C 
ATOM     12  C   UNL     1      -0.326  -1.986   0.941  0.00  0.00    +0.000 C 
ATOM     13  C   UNL     1       0.877  -2.059  -1.245  0.00  0.00    +0.000 C 
ENDBRANCH   9  13
ENDBRANCH   1   9
TORSDOF 2
