REMARK  Name = 
REMARK  15 active torsions:
REMARK  status: ('A' for Active; 'I' for Inactive)
REMARK    1  A    between atoms: C_1  and  C_2
REMARK    2  A    between atoms: C_2  and  C_3
REMARK    3  A    between atoms: C_3  and  C_4
REMARK    4  A    between atoms: C_4  and  C_5
REMARK    5  A    between atoms: C_5  and  C_6
REMARK    6  A    between atoms: C_7  and  C_8
REMARK    7  A    between atoms: C_8  and  C_9
REMARK    8  A    between atoms: C_10  and  C_11
REMARK    9  A    between atoms: C_11  and  C_12
REMARK   10  A    between atoms: C_13  and  C_14
REMARK   11  A    between atoms: C_14  and  C_15
REMARK   12  A    between atoms: C_15  and  C_16
REMARK   13  A    between atoms: C_16  and  C_17
REMARK   14  A    between atoms: C_17  and  C_18
REMARK   15  A    between atoms: C_18  and  O_20
REMARK                            x       y       z     vdW  Elec       q    Type
REMARK                         _______ _______ _______ _____ _____    ______ ____
ROOT
ATOM      1  C   UNL     1      -2.703   8.059  -5.246  0.00  0.00    +0.000 C 
ENDROOT
BRANCH   1   3
ATOM      2  C   UNL     1      -2.326   6.404  -3.416  0.00  0.00    +0.000 C 
ATOM      3  C   UNL     1      -3.210   7.098  -4.183  0.00  0.00    +0.000 C 
BRANCH   2   4
ATOM      4  C   UNL     1      -2.833   5.442  -2.354  0.00  0.00    +0.000 C 
BRANCH   4   6
ATOM      5  C   UNL     1      -1.544   3.392  -1.751  0.00  0.00    +0.000 C 
ATOM      6  C   UNL     1      -2.326   4.042  -2.655  0.00  0.00    +0.000 C 
BRANCH   5   7
ATOM      7  C   UNL     1      -1.037   1.991  -2.053  0.00  0.00    +0.000 C 
BRANCH   7   8
ATOM      8  C   UNL     1       0.483   1.991  -2.053  0.00  0.00    +0.000 C 
BRANCH   8   9
ATOM      9  C   UNL     1       0.990   2.430  -0.689  0.00  0.00    +0.000 C 
BRANCH   9  11
ATOM     10  C   UNL     1       0.990   0.068   0.073  0.00  0.00    +0.000 C 
ATOM     11  C   UNL     1       0.483   1.469   0.374  0.00  0.00    +0.000 C 
ENDBRANCH   9  11
ENDBRANCH   8   9
ENDBRANCH   7   8
ENDBRANCH   5   7
ENDBRANCH   4   6
ENDBRANCH   2   4
ENDBRANCH   1   3
BRANCH   1  12
ATOM     12  C   UNL     1      -3.210   7.620  -6.610  0.00  0.00    +0.000 C 
ATOM     13  C   UNL     1      -3.992   8.454  -7.346  0.00  0.00    +0.000 C 
BRANCH  13  14
ATOM     14  C   UNL     1      -4.499   8.015  -8.710  0.00  0.00    +0.000 C 
BRANCH  14  15
ATOM     15  C   UNL     1      -6.019   8.015  -8.710  0.00  0.00    +0.000 C 
BRANCH  15  16
ATOM     16  C   UNL     1      -6.525   9.416  -8.409  0.00  0.00    +0.000 C 
BRANCH  16  17
ATOM     17  C   UNL     1      -6.019  10.377  -9.471  0.00  0.00    +0.000 C 
BRANCH  17  18
ATOM     18  C   UNL     1      -6.525   9.938 -10.835  0.00  0.00    +0.000 C 
ATOM     19  O   UNL     1      -7.256  10.718 -11.523  0.00  0.00    +0.000 OA
BRANCH  18  20
ATOM     20  O   UNL     1      -6.182   8.656 -11.341  0.00  0.00    +0.000 OA
ATOM     21  H   UNL     1      -6.516   8.367 -12.238  0.00  0.00    +0.000 HD
ENDBRANCH  18  20
ENDBRANCH  17  18
ENDBRANCH  16  17
ENDBRANCH  15  16
ENDBRANCH  14  15
ENDBRANCH  13  14
ENDBRANCH   1  12
TORSDOF 14
