
 OpenBabel03132512093D

 50 49  0  0  0  0  0  0  0  0999 V2000
    0.9896    0.0679    0.0727 C   0  0  0  0  0  0  0  0  0  0  0  0
    0.4830    1.4689    0.3741 C   0  0  0  0  0  0  0  0  0  0  0  0
    0.9896    2.4304   -0.6886 C   0  0  0  0  0  0  0  0  0  0  0  0
    0.4830    1.9909   -2.0526 C   0  0  0  0  0  0  0  0  0  0  0  0
   -1.0370    1.9909   -2.0526 C   0  0  0  0  0  0  0  0  0  0  0  0
   -1.5437    3.3919   -1.7512 C   0  0  0  0  0  0  0  0  0  0  0  0
   -2.3258    4.0415   -2.6551 C   0  0  0  0  0  0  0  0  0  0  0  0
   -2.8325    5.4425   -2.3537 C   0  0  0  0  0  0  0  0  0  0  0  0
   -2.3258    6.4040   -3.4164 C   0  0  0  0  0  0  0  0  0  0  0  0
   -3.2099    7.0978   -4.1831 C   0  0  0  0  0  0  0  0  0  0  0  0
   -2.7032    8.0593   -5.2457 C   0  0  0  0  0  0  0  0  0  0  0  0
   -3.2099    7.6198   -6.6097 C   0  0  0  0  0  0  0  0  0  0  0  0
   -3.9920    8.4544   -7.3461 C   0  0  0  0  0  0  0  0  0  0  0  0
   -4.4987    8.0149   -8.7102 C   0  0  0  0  0  0  0  0  0  0  0  0
   -6.0187    8.0149   -8.7102 C   0  0  0  0  0  0  0  0  0  0  0  0
   -6.5253    9.4159   -8.4088 C   0  0  0  0  0  0  0  0  0  0  0  0
   -6.0187   10.3774   -9.4714 C   0  0  0  0  0  0  0  0  0  0  0  0
   -6.5253    9.9379  -10.8354 C   0  0  0  0  0  0  0  0  0  0  0  0
   -7.2560   10.7177  -11.5234 O   0  0  0  0  0  0  0  0  0  0  0  0
   -6.1823    8.6561  -11.3410 O   0  0  0  0  0  0  0  0  0  0  0  0
    0.6330   -0.2415   -0.8875 H   0  0  0  0  0  0  0  0  0  0  0  0
    0.6330   -0.6090    0.8207 H   0  0  0  0  0  0  0  0  0  0  0  0
    2.0596    0.0679    0.0727 H   0  0  0  0  0  0  0  0  0  0  0  0
   -0.5870    1.4689    0.3741 H   0  0  0  0  0  0  0  0  0  0  0  0
    0.8396    1.7783    1.3343 H   0  0  0  0  0  0  0  0  0  0  0  0
    0.6330    3.4166   -0.4764 H   0  0  0  0  0  0  0  0  0  0  0  0
    2.0596    2.4304   -0.6886 H   0  0  0  0  0  0  0  0  0  0  0  0
    0.8396    2.6677   -2.8006 H   0  0  0  0  0  0  0  0  0  0  0  0
    0.8396    1.0046   -2.2647 H   0  0  0  0  0  0  0  0  0  0  0  0
   -1.3937    1.6815   -3.0127 H   0  0  0  0  0  0  0  0  0  0  0  0
   -1.3937    1.3140   -1.3045 H   0  0  0  0  0  0  0  0  0  0  0  0
   -1.2852    3.8673   -0.8281 H   0  0  0  0  0  0  0  0  0  0  0  0
   -2.5843    3.5661   -3.5782 H   0  0  0  0  0  0  0  0  0  0  0  0
   -3.9025    5.4425   -2.3537 H   0  0  0  0  0  0  0  0  0  0  0  0
   -2.4758    5.7519   -1.3935 H   0  0  0  0  0  0  0  0  0  0  0  0
   -1.2739    6.5352   -3.5613 H   0  0  0  0  0  0  0  0  0  0  0  0
   -4.2619    6.9666   -4.0381 H   0  0  0  0  0  0  0  0  0  0  0  0
   -3.0599    9.0455   -5.0336 H   0  0  0  0  0  0  0  0  0  0  0  0
   -1.6332    8.0593   -5.2457 H   0  0  0  0  0  0  0  0  0  0  0  0
   -2.9514    6.6539   -6.9907 H   0  0  0  0  0  0  0  0  0  0  0  0
   -4.2505    9.4203   -6.9652 H   0  0  0  0  0  0  0  0  0  0  0  0
   -4.1420    8.6918   -9.4582 H   0  0  0  0  0  0  0  0  0  0  0  0
   -4.1420    7.0287   -8.9223 H   0  0  0  0  0  0  0  0  0  0  0  0
   -6.3753    7.7055   -9.6703 H   0  0  0  0  0  0  0  0  0  0  0  0
   -6.3753    7.3381   -7.9621 H   0  0  0  0  0  0  0  0  0  0  0  0
   -7.5953    9.4159   -8.4088 H   0  0  0  0  0  0  0  0  0  0  0  0
   -6.1687    9.7253   -7.4486 H   0  0  0  0  0  0  0  0  0  0  0  0
   -6.3753   11.3637   -9.2593 H   0  0  0  0  0  0  0  0  0  0  0  0
   -4.9487   10.3774   -9.4714 H   0  0  0  0  0  0  0  0  0  0  0  0
   -6.5156    8.3670  -12.2384 H   0  0  0  0  0  0  0  0  0  0  0  0
  1  2  1  0  0  0  0
  1 21  1  0  0  0  0
  1 22  1  0  0  0  0
  1 23  1  0  0  0  0
  2  3  1  0  0  0  0
  2 24  1  0  0  0  0
  2 25  1  0  0  0  0
  3  4  1  0  0  0  0
  3 26  1  0  0  0  0
  3 27  1  0  0  0  0
  4  5  1  0  0  0  0
  4 28  1  0  0  0  0
  4 29  1  0  0  0  0
  5  6  1  0  0  0  0
  5 30  1  0  0  0  0
  5 31  1  0  0  0  0
  6  7  2  0  0  0  0
  6 32  1  0  0  0  0
  7  8  1  0  0  0  0
  7 33  1  0  0  0  0
  8  9  1  0  0  0  0
  8 34  1  0  0  0  0
  8 35  1  0  0  0  0
  9 10  2  0  0  0  0
  9 36  1  0  0  0  0
 10 11  1  0  0  0  0
 10 37  1  0  0  0  0
 11 12  1  0  0  0  0
 11 38  1  0  0  0  0
 11 39  1  0  0  0  0
 12 13  2  0  0  0  0
 12 40  1  0  0  0  0
 13 14  1  0  0  0  0
 13 41  1  0  0  0  0
 14 15  1  0  0  0  0
 14 42  1  0  0  0  0
 14 43  1  0  0  0  0
 15 16  1  0  0  0  0
 15 44  1  0  0  0  0
 15 45  1  0  0  0  0
 16 17  1  0  0  0  0
 16 46  1  0  0  0  0
 16 47  1  0  0  0  0
 17 18  1  0  0  0  0
 17 48  1  0  0  0  0
 17 49  1  0  0  0  0
 18 19  2  0  0  0  0
 18 20  1  0  0  0  0
 20 50  1  0  0  0  0
M  END
