
 OpenBabel03132512093D

 46 49  0  0  0  0  0  0  0  0999 V2000
    0.9424   -0.0470    0.0669 C   0  0  0  0  0  0  0  0  0  0  0  0
    0.4691   -1.2175   -0.5828 O   0  0  0  0  0  0  0  0  0  0  0  0
    0.8121   -1.4652   -1.9383 C   0  0  0  0  0  0  0  0  0  0  0  0
    2.1374   -1.2819   -2.3773 C   0  0  0  0  0  0  0  0  0  0  0  0
    2.4698   -1.4603   -3.6914 C   0  0  0  0  0  0  0  0  0  0  0  0
    1.4875   -1.8598   -4.6250 C   0  0  0  0  0  0  0  0  0  0  0  0
    1.8364   -2.0663   -5.9354 N   0  0  0  0  0  0  0  0  0  0  0  0
    0.8785   -2.4311   -6.7424 C   0  0  0  0  0  0  0  0  0  0  0  0
   -0.4397   -2.6145   -6.4233 N   0  0  0  0  0  0  0  0  0  0  0  0
   -0.7903   -2.4068   -5.1771 C   0  0  0  0  0  0  0  0  0  0  0  0
   -2.2009   -2.5676   -4.7959 N   0  0  0  0  0  0  0  0  0  0  0  0
   -3.1956   -2.9561   -5.8061 C   0  0  0  0  0  0  0  0  0  0  0  0
   -4.2457   -2.1043   -6.1065 C   0  0  0  0  0  0  0  0  0  0  0  0
   -5.2565   -2.6977   -6.8991 C   0  0  0  0  0  0  0  0  0  0  0  0
   -5.1027   -3.8036   -7.6043 C   0  0  0  0  0  0  0  0  0  0  0  0
   -6.0240   -4.1791   -8.6175 O   0  0  0  0  0  0  0  0  0  0  0  0
   -5.8215   -5.3770   -9.3528 C   0  0  0  0  0  0  0  0  0  0  0  0
   -4.4872   -5.3072  -10.0774 C   0  0  0  0  0  0  0  0  0  0  0  0
   -3.8480   -6.4816  -10.4389 C   0  0  0  0  0  0  0  0  0  0  0  0
   -2.5016   -6.3029  -10.8355 C   0  0  0  0  0  0  0  0  0  0  0  0
   -1.9729   -5.1463  -11.1916 C   0  0  0  0  0  0  0  0  0  0  0  0
   -2.6859   -4.0259  -10.8663 C   0  0  0  0  0  0  0  0  0  0  0  0
   -3.9567   -4.1214  -10.3526 C   0  0  0  0  0  0  0  0  0  0  0  0
   -4.0085   -4.5675   -7.3065 C   0  0  0  0  0  0  0  0  0  0  0  0
   -3.0431   -4.1121   -6.4413 C   0  0  0  0  0  0  0  0  0  0  0  0
    0.1563   -2.0299   -4.1823 C   0  0  0  0  0  0  0  0  0  0  0  0
   -0.1655   -1.8254   -2.8213 C   0  0  0  0  0  0  0  0  0  0  0  0
    0.5857   -0.0299    1.0756 H   0  0  0  0  0  0  0  0  0  0  0  0
    0.5857    0.8180   -0.4522 H   0  0  0  0  0  0  0  0  0  0  0  0
    2.0124   -0.0470    0.0669 H   0  0  0  0  0  0  0  0  0  0  0  0
    2.8931   -0.9998   -1.6743 H   0  0  0  0  0  0  0  0  0  0  0  0
    3.4769   -1.2968   -4.0138 H   0  0  0  0  0  0  0  0  0  0  0  0
    1.1525   -2.6053   -7.7619 H   0  0  0  0  0  0  0  0  0  0  0  0
   -2.4895   -2.4096   -3.8304 H   0  0  0  0  0  0  0  0  0  0  0  0
   -4.2887   -1.0896   -5.7697 H   0  0  0  0  0  0  0  0  0  0  0  0
   -6.2120   -2.2170   -6.9292 H   0  0  0  0  0  0  0  0  0  0  0  0
   -5.8202   -6.2110   -8.6825 H   0  0  0  0  0  0  0  0  0  0  0  0
   -6.6095   -5.4946  -10.0670 H   0  0  0  0  0  0  0  0  0  0  0  0
   -4.3288   -7.4373  -10.4199 H   0  0  0  0  0  0  0  0  0  0  0  0
   -1.8676   -7.1648  -10.8476 H   0  0  0  0  0  0  0  0  0  0  0  0
   -1.0370   -5.0891  -11.7071 H   0  0  0  0  0  0  0  0  0  0  0  0
   -2.2479   -3.0609  -11.0139 H   0  0  0  0  0  0  0  0  0  0  0  0
   -4.5239   -3.2322  -10.1726 H   0  0  0  0  0  0  0  0  0  0  0  0
   -3.9026   -5.5338   -7.7535 H   0  0  0  0  0  0  0  0  0  0  0  0
   -2.1603   -4.6943   -6.2780 H   0  0  0  0  0  0  0  0  0  0  0  0
   -1.1728   -1.9525   -2.4835 H   0  0  0  0  0  0  0  0  0  0  0  0
  1  2  1  0  0  0  0
  1 28  1  0  0  0  0
  1 29  1  0  0  0  0
  1 30  1  0  0  0  0
  2  3  1  0  0  0  0
  3  4  1  0  0  0  0
  3 27  2  0  0  0  0
  4  5  2  0  0  0  0
  4 31  1  0  0  0  0
  5  6  1  0  0  0  0
  5 32  1  0  0  0  0
  6  7  1  0  0  0  0
  6 26  2  0  0  0  0
  7  8  2  0  0  0  0
  8  9  1  0  0  0  0
  8 33  1  0  0  0  0
  9 10  2  0  0  0  0
 10 11  1  0  0  0  0
 10 26  1  0  0  0  0
 11 12  1  0  0  0  0
 11 34  1  0  0  0  0
 12 13  1  0  0  0  0
 12 25  2  0  0  0  0
 13 14  2  0  0  0  0
 13 35  1  0  0  0  0
 14 15  1  0  0  0  0
 14 36  1  0  0  0  0
 15 16  1  0  0  0  0
 15 24  2  0  0  0  0
 16 17  1  0  0  0  0
 17 18  1  0  0  0  0
 17 37  1  0  0  0  0
 17 38  1  0  0  0  0
 18 19  1  0  0  0  0
 18 23  2  0  0  0  0
 19 20  2  0  0  0  0
 19 39  1  0  0  0  0
 20 21  1  0  0  0  0
 20 40  1  0  0  0  0
 21 22  2  0  0  0  0
 21 41  1  0  0  0  0
 22 23  1  0  0  0  0
 22 42  1  0  0  0  0
 23 43  1  0  0  0  0
 24 25  1  0  0  0  0
 24 44  1  0  0  0  0
 25 45  1  0  0  0  0
 26 27  1  0  0  0  0
 27 46  1  0  0  0  0
M  END
