REMARK  Name = 
REMARK  6 active torsions:
REMARK  status: ('A' for Active; 'I' for Inactive)
REMARK    1  A    between atoms: C_1  and  O_2
REMARK    2  A    between atoms: O_2  and  C_3
REMARK    3  A    between atoms: N_11  and  C_12
REMARK    4  A    between atoms: C_15  and  O_16
REMARK    5  A    between atoms: O_16  and  C_17
REMARK    6  A    between atoms: C_17  and  C_18
REMARK                            x       y       z     vdW  Elec       q    Type
REMARK                         _______ _______ _______ _____ _____    ______ ____
ROOT
ATOM      1  C   UNL     1       0.812  -1.465  -1.938  0.00  0.00    +0.000 A 
ATOM      2  C   UNL     1       2.137  -1.282  -2.377  0.00  0.00    +0.000 A 
ATOM      3  C   UNL     1       2.470  -1.460  -3.691  0.00  0.00    +0.000 A 
ATOM      4  C   UNL     1       1.488  -1.860  -4.625  0.00  0.00    +0.000 A 
ATOM      5  N   UNL     1       1.836  -2.066  -5.935  0.00  0.00    +0.000 NA
ATOM      6  C   UNL     1       0.878  -2.431  -6.742  0.00  0.00    +0.000 A 
ATOM      7  N   UNL     1      -0.440  -2.615  -6.423  0.00  0.00    +0.000 NA
ATOM      8  C   UNL     1      -0.790  -2.407  -5.177  0.00  0.00    +0.000 A 
ATOM      9  N   UNL     1      -2.201  -2.568  -4.796  0.00  0.00    +0.000 N 
ATOM     10  C   UNL     1       0.156  -2.030  -4.182  0.00  0.00    +0.000 A 
ATOM     11  C   UNL     1      -0.166  -1.825  -2.821  0.00  0.00    +0.000 A 
ATOM     12  H   UNL     1      -2.490  -2.410  -3.830  0.00  0.00    +0.000 HD
ENDROOT
BRANCH   9  13
ATOM     13  C   UNL     1      -3.196  -2.956  -5.806  0.00  0.00    +0.000 A 
ATOM     14  C   UNL     1      -4.246  -2.104  -6.106  0.00  0.00    +0.000 A 
ATOM     15  C   UNL     1      -5.256  -2.698  -6.899  0.00  0.00    +0.000 A 
ATOM     16  C   UNL     1      -5.103  -3.804  -7.604  0.00  0.00    +0.000 A 
ATOM     17  C   UNL     1      -4.008  -4.567  -7.306  0.00  0.00    +0.000 A 
ATOM     18  C   UNL     1      -3.043  -4.112  -6.441  0.00  0.00    +0.000 A 
BRANCH  16  19
ATOM     19  O   UNL     1      -6.024  -4.179  -8.617  0.00  0.00    +0.000 OA
BRANCH  19  20
ATOM     20  C   UNL     1      -5.822  -5.377  -9.353  0.00  0.00    +0.000 C 
BRANCH  20  21
ATOM     21  C   UNL     1      -4.487  -5.307 -10.077  0.00  0.00    +0.000 A 
ATOM     22  C   UNL     1      -3.848  -6.482 -10.439  0.00  0.00    +0.000 A 
ATOM     23  C   UNL     1      -2.502  -6.303 -10.835  0.00  0.00    +0.000 A 
ATOM     24  C   UNL     1      -1.973  -5.146 -11.192  0.00  0.00    +0.000 A 
ATOM     25  C   UNL     1      -2.686  -4.026 -10.866  0.00  0.00    +0.000 A 
ATOM     26  C   UNL     1      -3.957  -4.121 -10.353  0.00  0.00    +0.000 A 
ENDBRANCH  20  21
ENDBRANCH  19  20
ENDBRANCH  16  19
ENDBRANCH   9  13
BRANCH   1  28
ATOM     27  C   UNL     1       0.942  -0.047   0.067  0.00  0.00    +0.000 C 
ATOM     28  O   UNL     1       0.469  -1.218  -0.583  0.00  0.00    +0.000 OA
ENDBRANCH   1  28
TORSDOF 5
