
 OpenBabel03132514253D

 46 49  0  0  0  0  0  0  0  0999 V2000
    1.0331   -0.0892   -0.0309 C   0  0  0  0  0  0  0  0  0  0  0  0
    0.5598    0.9489    0.8146 O   0  0  0  0  0  0  0  0  0  0  0  0
    0.9029    0.9543    2.1925 C   0  0  0  0  0  0  0  0  0  0  0  0
    2.2305    0.6957    2.5838 C   0  0  0  0  0  0  0  0  0  0  0  0
    2.5829    0.6958    3.9047 C   0  0  0  0  0  0  0  0  0  0  0  0
    1.6196    0.9842    4.8972 C   0  0  0  0  0  0  0  0  0  0  0  0
    1.9890    1.0125    6.2179 N   0  0  0  0  0  0  0  0  0  0  0  0
    1.0478    1.2827    7.0800 C   0  0  0  0  0  0  0  0  0  0  0  0
   -0.2712    1.5257    6.8075 N   0  0  0  0  0  0  0  0  0  0  0  0
   -0.6414    1.4879    5.5503 C   0  0  0  0  0  0  0  0  0  0  0  0
   -2.0540    1.7179    5.2146 N   0  0  0  0  0  0  0  0  0  0  0  0
   -3.0288    1.9856    6.2818 C   0  0  0  0  0  0  0  0  0  0  0  0
   -4.1158    1.1402    6.4318 C   0  0  0  0  0  0  0  0  0  0  0  0
   -5.1365    1.6607    7.2621 C   0  0  0  0  0  0  0  0  0  0  0  0
   -4.9746    2.6582    8.1123 C   0  0  0  0  0  0  0  0  0  0  0  0
   -5.9211    2.9306    9.1351 O   0  0  0  0  0  0  0  0  0  0  0  0
   -5.7088    4.0134   10.0289 C   0  0  0  0  0  0  0  0  0  0  0  0
   -4.4056    3.8009   10.7817 C   0  0  0  0  0  0  0  0  0  0  0  0
   -3.9650    2.5102   11.0237 C   0  0  0  0  0  0  0  0  0  0  0  0
   -2.9210    2.4298   11.9754 C   0  0  0  0  0  0  0  0  0  0  0  0
   -2.1667    3.4479   12.3475 C   0  0  0  0  0  0  0  0  0  0  0  0
   -2.6225    4.6945   12.0190 C   0  0  0  0  0  0  0  0  0  0  0  0
   -3.7144    4.8546   11.2005 C   0  0  0  0  0  0  0  0  0  0  0  0
   -3.8465    3.4145    7.9546 C   0  0  0  0  0  0  0  0  0  0  0  0
   -2.8640    3.0420    7.0693 C   0  0  0  0  0  0  0  0  0  0  0  0
    0.2858    1.2304    4.5007 C   0  0  0  0  0  0  0  0  0  0  0  0
   -0.0571    1.2103    3.1296 C   0  0  0  0  0  0  0  0  0  0  0  0
    0.6765    0.0714   -1.0268 H   0  0  0  0  0  0  0  0  0  0  0  0
    0.6765   -1.0320    0.3280 H   0  0  0  0  0  0  0  0  0  0  0  0
    2.1031   -0.0892   -0.0309 H   0  0  0  0  0  0  0  0  0  0  0  0
    2.9722    0.4969    1.8387 H   0  0  0  0  0  0  0  0  0  0  0  0
    3.5913    0.4767    4.1878 H   0  0  0  0  0  0  0  0  0  0  0  0
    1.3379    1.3180    8.1093 H   0  0  0  0  0  0  0  0  0  0  0  0
   -2.3577    1.6918    4.2413 H   0  0  0  0  0  0  0  0  0  0  0  0
   -4.1780    0.1807    5.9623 H   0  0  0  0  0  0  0  0  0  0  0  0
   -6.1071    1.2150    7.1966 H   0  0  0  0  0  0  0  0  0  0  0  0
   -5.6560    4.9276    9.4754 H   0  0  0  0  0  0  0  0  0  0  0  0
   -6.5191    4.0647   10.7258 H   0  0  0  0  0  0  0  0  0  0  0  0
   -4.3767    1.6519   10.5353 H   0  0  0  0  0  0  0  0  0  0  0  0
   -2.7293    1.4778   12.4248 H   0  0  0  0  0  0  0  0  0  0  0  0
   -1.2483    3.3051   12.8776 H   0  0  0  0  0  0  0  0  0  0  0  0
   -2.1217    5.5577   12.4049 H   0  0  0  0  0  0  0  0  0  0  0  0
   -4.0105    5.8372   10.8977 H   0  0  0  0  0  0  0  0  0  0  0  0
   -3.7271    4.3093    8.5290 H   0  0  0  0  0  0  0  0  0  0  0  0
   -1.9578    3.6083    7.0138 H   0  0  0  0  0  0  0  0  0  0  0  0
   -1.0664    1.3953    2.8266 H   0  0  0  0  0  0  0  0  0  0  0  0
  1  2  1  0  0  0  0
  1 28  1  0  0  0  0
  1 29  1  0  0  0  0
  1 30  1  0  0  0  0
  2  3  1  0  0  0  0
  3  4  1  0  0  0  0
  3 27  2  0  0  0  0
  4  5  2  0  0  0  0
  4 31  1  0  0  0  0
  5  6  1  0  0  0  0
  5 32  1  0  0  0  0
  6  7  1  0  0  0  0
  6 26  2  0  0  0  0
  7  8  2  0  0  0  0
  8  9  1  0  0  0  0
  8 33  1  0  0  0  0
  9 10  2  0  0  0  0
 10 11  1  0  0  0  0
 10 26  1  0  0  0  0
 11 12  1  0  0  0  0
 11 34  1  0  0  0  0
 12 13  1  0  0  0  0
 12 25  2  0  0  0  0
 13 14  2  0  0  0  0
 13 35  1  0  0  0  0
 14 15  1  0  0  0  0
 14 36  1  0  0  0  0
 15 16  1  0  0  0  0
 15 24  2  0  0  0  0
 16 17  1  0  0  0  0
 17 18  1  0  0  0  0
 17 37  1  0  0  0  0
 17 38  1  0  0  0  0
 18 19  1  0  0  0  0
 18 23  2  0  0  0  0
 19 20  2  0  0  0  0
 19 39  1  0  0  0  0
 20 21  1  0  0  0  0
 20 40  1  0  0  0  0
 21 22  2  0  0  0  0
 21 41  1  0  0  0  0
 22 23  1  0  0  0  0
 22 42  1  0  0  0  0
 23 43  1  0  0  0  0
 24 25  1  0  0  0  0
 24 44  1  0  0  0  0
 25 45  1  0  0  0  0
 26 27  1  0  0  0  0
 27 46  1  0  0  0  0
M  END
