REMARK  Name = 
REMARK  38 active torsions:
REMARK  status: ('A' for Active; 'I' for Inactive)
REMARK    1  A    between atoms: C_1  and  C_2
REMARK    2  A    between atoms: C_2  and  C_3
REMARK    3  A    between atoms: C_4  and  C_5
REMARK    4  A    between atoms: C_5  and  C_6
REMARK    5  A    between atoms: C_6  and  C_7
REMARK    6  A    between atoms: C_7  and  C_8
REMARK    7  A    between atoms: C_7  and  O_9
REMARK    8  A    between atoms: C_7  and  C_30
REMARK    9  A    between atoms: O_9  and  C_10
REMARK   10  A    between atoms: C_12  and  C_13
REMARK   11  A    between atoms: C_13  and  O_14
REMARK   12  A    between atoms: O_14  and  C_15
REMARK   13  A    between atoms: C_17  and  C_18
REMARK   14  A    between atoms: C_18  and  O_19
REMARK   15  A    between atoms: C_20  and  O_21
REMARK   16  A    between atoms: C_22  and  O_23
REMARK   17  A    between atoms: C_24  and  O_25
REMARK   18  A    between atoms: C_26  and  O_27
REMARK   19  A    between atoms: C_28  and  O_29
REMARK   20  A    between atoms: C_33  and  C_34
REMARK   21  A    between atoms: C_36  and  O_37
REMARK   22  A    between atoms: C_40  and  C_41
REMARK   23  A    between atoms: C_44  and  O_45
REMARK   24  A    between atoms: O_45  and  C_46
REMARK   25  A    between atoms: C_48  and  C_49
REMARK   26  A    between atoms: C_49  and  O_50
REMARK   27  A    between atoms: C_51  and  O_52
REMARK   28  A    between atoms: C_53  and  O_54
REMARK   29  A    between atoms: C_55  and  O_56
REMARK   30  A    between atoms: O_56  and  C_57
REMARK   31  A    between atoms: C_59  and  C_60
REMARK   32  A    between atoms: C_60  and  O_61
REMARK   33  A    between atoms: C_62  and  O_63
REMARK   34  A    between atoms: C_64  and  O_65
REMARK   35  A    between atoms: C_66  and  O_67
REMARK   36  A    between atoms: C_68  and  C_69
REMARK   37  A    between atoms: C_68  and  C_70
REMARK   38  A    between atoms: C_74  and  C_75
REMARK                            x       y       z     vdW  Elec       q    Type
REMARK                         _______ _______ _______ _____ _____    ______ ____
ROOT
ATOM      1  C   UNL     1       1.767  -3.848  -2.939  0.00  0.00    +0.000 C 
ATOM      2  C   UNL     1       0.500  -3.092  -2.572  0.00  0.00    +0.000 C 
ATOM      3  C   UNL     1      -0.260  -2.732  -3.838  0.00  0.00    +0.000 C 
ATOM      4  C   UNL     1      -0.627  -4.003  -4.588  0.00  0.00    +0.000 C 
ATOM      5  C   UNL     1      -1.256  -3.539  -5.891  0.00  0.00    +0.000 C 
ATOM      6  C   UNL     1       0.443  -4.941  -5.150  0.00  0.00    +0.000 C 
ATOM      7  C   UNL     1       1.229  -5.465  -4.077  0.00  0.00    +0.000 C 
ATOM      8  C   UNL     1       0.484  -6.231  -3.129  0.00  0.00    +0.000 C 
ATOM      9  C   UNL     1      -0.584  -5.344  -2.484  0.00  0.00    +0.000 C 
ATOM     10  C   UNL     1       0.083  -4.209  -1.725  0.00  0.00    +0.000 C 
ATOM     11  C   UNL     1       1.018  -4.610  -0.596  0.00  0.00    +0.000 C 
ATOM     12  C   UNL     1       0.642  -3.533  -2.979  0.00  0.00    +0.000 C 
ATOM     13  C   UNL     1      -0.434  -3.190  -3.855  0.00  0.00    +0.000 C 
ATOM     14  C   UNL     1      -1.374  -2.273  -3.292  0.00  0.00    +0.000 C 
ATOM     15  C   UNL     1      -2.015  -2.899  -2.050  0.00  0.00    +0.000 C 
ATOM     16  C   UNL     1      -2.783  -4.149  -2.446  0.00  0.00    +0.000 C 
ATOM     17  C   UNL     1      -2.971  -1.903  -1.415  0.00  0.00    +0.000 C 
ATOM     18  C   UNL     1      -0.916  -3.265  -1.048  0.00  0.00    +0.000 C 
ATOM     19  C   UNL     1      -1.531  -3.950   0.161  0.00  0.00    +0.000 C 
ATOM     20  C   UNL     1      -2.512  -3.832  -2.961  0.00  0.00    +0.000 C 
ATOM     21  C   UNL     1      -1.488  -4.770  -3.579  0.00  0.00    +0.000 C 
ATOM     22  C   UNL     1      -2.213  -5.903  -4.287  0.00  0.00    +0.000 C 
ENDROOT
BRANCH   7  23
ATOM     23  O   UNL     1       1.760  -4.350  -3.377  0.00  0.00    +0.000 OA
ATOM     24  H   UNL     1       1.011  -3.799  -3.010  0.00  0.00    +0.000 HD
ENDBRANCH   7  23
BRANCH   1  25
ATOM     25  C   UNL     1       2.641  -2.973  -3.823  0.00  0.00    +0.000 C 
ATOM     26  C   UNL     1       1.881  -2.613  -5.089  0.00  0.00    +0.000 C 
BRANCH  25  27
ATOM     27  O   UNL     1       3.824  -3.679  -4.166  0.00  0.00    +0.000 OA
BRANCH  27  28
ATOM     28  C   UNL     1       4.641  -2.862  -4.992  0.00  0.00    +0.000 C 
ATOM     29  O   UNL     1       4.108  -2.490  -6.377  0.00  0.00    +0.000 OA
ATOM     30  C   UNL     1       2.980  -1.623  -6.236  0.00  0.00    +0.000 C 
ATOM     31  C   UNL     1       3.272  -0.390  -5.575  0.00  0.00    +0.000 C 
ATOM     32  C   UNL     1       3.771  -0.678  -4.157  0.00  0.00    +0.000 C 
ATOM     33  C   UNL     1       5.005  -1.582  -4.233  0.00  0.00    +0.000 C 
BRANCH  33  34
ATOM     34  O   UNL     1       5.440  -1.909  -2.921  0.00  0.00    +0.000 OA
ATOM     35  H   UNL     1       4.707  -2.387  -2.437  0.00  0.00    +0.000 HD
ENDBRANCH  33  34
BRANCH  32  36
ATOM     36  O   UNL     1       2.749  -1.325  -3.413  0.00  0.00    +0.000 OA
ATOM     37  H   UNL     1       2.505  -2.185  -3.861  0.00  0.00    +0.000 HD
ENDBRANCH  32  36
BRANCH  31  38
ATOM     38  O   UNL     1       2.095   0.403  -5.512  0.00  0.00    +0.000 OA
ATOM     39  H   UNL     1       1.389  -0.089  -5.003  0.00  0.00    +0.000 HD
ENDBRANCH  31  38
BRANCH  30  40
ATOM     40  C   UNL     1       1.969  -2.356  -5.370  0.00  0.00    +0.000 C 
BRANCH  40  41
ATOM     41  O   UNL     1       0.808  -1.553  -5.216  0.00  0.00    +0.000 OA
BRANCH  41  42
ATOM     42  C   UNL     1       1.161  -0.326  -4.595  0.00  0.00    +0.000 C 
ATOM     43  O   UNL     1       1.307   0.799  -5.648  0.00  0.00    +0.000 OA
ATOM     44  C   UNL     1       1.152   2.086  -4.794  0.00  0.00    +0.000 C 
ATOM     45  C   UNL     1       0.066   1.726  -3.759  0.00  0.00    +0.000 C 
ATOM     46  C   UNL     1       0.072   0.192  -3.632  0.00  0.00    +0.000 C 
BRANCH  46  47
ATOM     47  O   UNL     1      -1.199  -0.353  -3.956  0.00  0.00    +0.000 OA
ATOM     48  H   UNL     1      -1.441  -0.101  -4.893  0.00  0.00    +0.000 HD
ENDBRANCH  46  47
BRANCH  45  49
ATOM     49  O   UNL     1      -1.208   2.202  -4.166  0.00  0.00    +0.000 OA
ATOM     50  H   UNL     1      -1.448   1.798  -5.049  0.00  0.00    +0.000 HD
ENDBRANCH  45  49
BRANCH  44  51
ATOM     51  C   UNL     1       0.779   3.299  -5.631  0.00  0.00    +0.000 C 
BRANCH  51  52
ATOM     52  O   UNL     1       0.625   4.429  -4.785  0.00  0.00    +0.000 OA
ATOM     53  H   UNL     1      -0.098   4.249  -4.117  0.00  0.00    +0.000 HD
ENDBRANCH  51  52
ENDBRANCH  44  51
ENDBRANCH  41  42
ENDBRANCH  40  41
ENDBRANCH  30  40
ENDBRANCH  27  28
ENDBRANCH  25  27
BRANCH  25  54
ATOM     54  C   UNL     1       3.008  -1.703  -3.074  0.00  0.00    +0.000 C 
BRANCH  54  55
ATOM     55  C   UNL     1       1.742  -0.947  -2.707  0.00  0.00    +0.000 C 
BRANCH  55  59
ATOM     56  C   UNL     1       1.046  -0.072  -0.052  0.00  0.00    +0.000 C 
ATOM     57  C   UNL     1       0.539  -1.409  -0.569  0.00  0.00    +0.000 C 
ATOM     58  C   UNL     1      -0.335  -2.283   0.315  0.00  0.00    +0.000 C 
ATOM     59  C   UNL     1       0.868  -1.822  -1.823  0.00  0.00    +0.000 C 
ENDBRANCH  55  59
ENDBRANCH  54  55
ENDBRANCH  25  54
ENDBRANCH   1  25
BRANCH  14  60
ATOM     60  O   UNL     1      -2.382  -1.981  -4.249  0.00  0.00    +0.000 OA
BRANCH  60  61
ATOM     61  C   UNL     1      -3.050  -3.180  -4.614  0.00  0.00    +0.000 C 
ATOM     62  O   UNL     1      -2.859  -4.442  -5.458  0.00  0.00    +0.000 OA
ATOM     63  C   UNL     1      -1.964  -5.332  -4.787  0.00  0.00    +0.000 C 
ATOM     64  C   UNL     1      -2.427  -5.772  -3.509  0.00  0.00    +0.000 C 
ATOM     65  C   UNL     1      -2.600  -4.564  -2.587  0.00  0.00    +0.000 C 
ATOM     66  C   UNL     1      -3.578  -3.576  -3.230  0.00  0.00    +0.000 C 
BRANCH  65  67
ATOM     67  O   UNL     1      -1.344  -3.931  -2.387  0.00  0.00    +0.000 OA
ATOM     68  H   UNL     1      -0.980  -3.628  -3.267  0.00  0.00    +0.000 HD
ENDBRANCH  65  67
BRANCH  64  69
ATOM     69  O   UNL     1      -1.480  -6.667  -2.945  0.00  0.00    +0.000 OA
ATOM     70  H   UNL     1      -0.602  -6.200  -2.839  0.00  0.00    +0.000 HD
ENDBRANCH  64  69
BRANCH  63  71
ATOM     71  C   UNL     1      -0.677  -4.559  -4.546  0.00  0.00    +0.000 C 
BRANCH  71  72
ATOM     72  O   UNL     1       0.268  -5.403  -3.904  0.00  0.00    +0.000 OA
ATOM     73  H   UNL     1      -0.103  -5.714  -3.029  0.00  0.00    +0.000 HD
ENDBRANCH  71  72
ENDBRANCH  63  71
BRANCH  66  74
ATOM     74  O   UNL     1      -3.698  -2.420  -2.415  0.00  0.00    +0.000 OA
BRANCH  74  75
ATOM     75  C   UNL     1      -2.426  -1.803  -2.277  0.00  0.00    +0.000 C 
ATOM     76  O   UNL     1      -1.722  -3.095  -1.856  0.00  0.00    +0.000 OA
ATOM     77  C   UNL     1      -2.063  -4.142  -2.768  0.00  0.00    +0.000 C 
ATOM     78  C   UNL     1      -1.666  -3.891  -4.117  0.00  0.00    +0.000 C 
ATOM     79  C   UNL     1      -2.368  -2.631  -4.630  0.00  0.00    +0.000 C 
ATOM     80  C   UNL     1      -2.021  -1.455  -3.712  0.00  0.00    +0.000 C 
BRANCH  80  81
ATOM     81  O   UNL     1      -2.717  -0.293  -4.139  0.00  0.00    +0.000 OA
ATOM     82  H   UNL     1      -3.702  -0.463  -4.103  0.00  0.00    +0.000 HD
ENDBRANCH  80  81
BRANCH  79  83
ATOM     83  O   UNL     1      -3.773  -2.836  -4.633  0.00  0.00    +0.000 OA
ATOM     84  H   UNL     1      -4.083  -3.035  -3.703  0.00  0.00    +0.000 HD
ENDBRANCH  79  83
BRANCH  78  85
ATOM     85  O   UNL     1      -2.027  -4.998  -4.930  0.00  0.00    +0.000 OA
ATOM     86  H   UNL     1      -3.017  -5.130  -4.893  0.00  0.00    +0.000 HD
ENDBRANCH  78  85
BRANCH  77  87
ATOM     87  C   UNL     1      -3.579  -4.246  -2.769  0.00  0.00    +0.000 C 
BRANCH  87  88
ATOM     88  O   UNL     1      -3.981  -5.293  -3.640  0.00  0.00    +0.000 OA
ATOM     89  H   UNL     1      -3.660  -5.097  -4.566  0.00  0.00    +0.000 HD
ENDBRANCH  87  88
ENDBRANCH  77  87
ENDBRANCH  74  75
ENDBRANCH  66  74
ENDBRANCH  60  61
ENDBRANCH  14  60
TORSDOF 30
