
 OpenBabel03132512093D

165172  0  0  0  0  0  0  0  0999 V2000
    1.0457   -0.0719   -0.0523 C   0  0  0  0  0  0  0  0  0  0  0  0
    0.5391   -1.4085   -0.5692 C   0  0  0  0  0  0  0  0  0  0  0  0
   -0.3348   -2.2834    0.3148 C   0  0  0  0  0  0  0  0  0  0  0  0
    0.8677   -1.8218   -1.8230 C   0  0  0  0  0  0  0  0  0  0  0  0
    1.7416   -0.9469   -2.7069 C   0  0  0  0  0  0  0  0  0  0  0  0
    3.0083   -1.7027   -3.0740 C   0  0  0  0  0  0  0  0  0  0  0  0
    2.6411   -2.9732   -3.8232 C   0  0  0  0  0  0  0  0  0  0  0  0
    1.8811   -2.6131   -5.0893 C   0  0  0  0  0  0  0  0  0  0  0  0
    3.8244   -3.6793   -4.1661 O   0  0  0  0  0  0  0  0  0  0  0  0
    4.6408   -2.8620   -4.9919 C   0  0  0  0  0  0  0  0  0  0  0  0
    4.1079   -2.4895   -6.3774 O   0  0  0  0  0  0  0  0  0  0  0  0
    2.9803   -1.6227   -6.2363 C   0  0  0  0  0  0  0  0  0  0  0  0
    1.9690   -2.3562   -5.3705 C   0  0  0  0  0  0  0  0  0  0  0  0
    0.8080   -1.5534   -5.2156 O   0  0  0  0  0  0  0  0  0  0  0  0
    1.1606   -0.3259   -4.5949 C   0  0  0  0  0  0  0  0  0  0  0  0
    1.3067    0.7995   -5.6483 O   0  0  0  0  0  0  0  0  0  0  0  0
    1.1523    2.0861   -4.7943 C   0  0  0  0  0  0  0  0  0  0  0  0
    0.7789    3.2987   -5.6312 C   0  0  0  0  0  0  0  0  0  0  0  0
    0.6249    4.4286   -4.7850 O   0  0  0  0  0  0  0  0  0  0  0  0
    0.0663    1.7257   -3.7590 C   0  0  0  0  0  0  0  0  0  0  0  0
   -1.2080    2.2017   -4.1663 O   0  0  0  0  0  0  0  0  0  0  0  0
    0.0719    0.1921   -3.6325 C   0  0  0  0  0  0  0  0  0  0  0  0
   -1.1988   -0.3529   -3.9561 O   0  0  0  0  0  0  0  0  0  0  0  0
    3.2717   -0.3900   -5.5754 C   0  0  0  0  0  0  0  0  0  0  0  0
    2.0954    0.4029   -5.5118 O   0  0  0  0  0  0  0  0  0  0  0  0
    3.7707   -0.6776   -4.1574 C   0  0  0  0  0  0  0  0  0  0  0  0
    2.7490   -1.3250   -3.4135 O   0  0  0  0  0  0  0  0  0  0  0  0
    5.0050   -1.5818   -4.2329 C   0  0  0  0  0  0  0  0  0  0  0  0
    5.4401   -1.9094   -2.9215 O   0  0  0  0  0  0  0  0  0  0  0  0
    1.7672   -3.8481   -2.9392 C   0  0  0  0  0  0  0  0  0  0  0  0
    0.5005   -3.0923   -2.5722 C   0  0  0  0  0  0  0  0  0  0  0  0
   -0.2595   -2.7322   -3.8383 C   0  0  0  0  0  0  0  0  0  0  0  0
   -0.6267   -4.0027   -4.5875 C   0  0  0  0  0  0  0  0  0  0  0  0
   -1.2561   -3.5393   -5.8912 C   0  0  0  0  0  0  0  0  0  0  0  0
    0.4430   -4.9415   -5.1503 C   0  0  0  0  0  0  0  0  0  0  0  0
    1.2288   -5.4649   -4.0774 C   0  0  0  0  0  0  0  0  0  0  0  0
    1.7602   -4.3499   -3.3769 O   0  0  0  0  0  0  0  0  0  0  0  0
    0.4838   -6.2308   -3.1287 C   0  0  0  0  0  0  0  0  0  0  0  0
   -0.5842   -5.3441   -2.4842 C   0  0  0  0  0  0  0  0  0  0  0  0
    0.0834   -4.2090   -1.7251 C   0  0  0  0  0  0  0  0  0  0  0  0
    1.0183   -4.6098   -0.5957 C   0  0  0  0  0  0  0  0  0  0  0  0
    0.6423   -3.5328   -2.9792 C   0  0  0  0  0  0  0  0  0  0  0  0
   -0.4341   -3.1902   -3.8548 C   0  0  0  0  0  0  0  0  0  0  0  0
   -1.3743   -2.2735   -3.2919 C   0  0  0  0  0  0  0  0  0  0  0  0
   -2.3822   -1.9814   -4.2486 O   0  0  0  0  0  0  0  0  0  0  0  0
   -3.0502   -3.1801   -4.6135 C   0  0  0  0  0  0  0  0  0  0  0  0
   -2.8594   -4.4425   -5.4576 O   0  0  0  0  0  0  0  0  0  0  0  0
   -1.9638   -5.3321   -4.7875 C   0  0  0  0  0  0  0  0  0  0  0  0
   -0.6773   -4.5594   -4.5458 C   0  0  0  0  0  0  0  0  0  0  0  0
    0.2679   -5.4027   -3.9041 O   0  0  0  0  0  0  0  0  0  0  0  0
   -2.4266   -5.7721   -3.5094 C   0  0  0  0  0  0  0  0  0  0  0  0
   -1.4797   -6.6671   -2.9451 O   0  0  0  0  0  0  0  0  0  0  0  0
   -2.5999   -4.5635   -2.5865 C   0  0  0  0  0  0  0  0  0  0  0  0
   -1.3443   -3.9311   -2.3867 O   0  0  0  0  0  0  0  0  0  0  0  0
   -3.5778   -3.5757   -3.2304 C   0  0  0  0  0  0  0  0  0  0  0  0
   -3.6980   -2.4196   -2.4147 O   0  0  0  0  0  0  0  0  0  0  0  0
   -2.4262   -1.8033   -2.2766 C   0  0  0  0  0  0  0  0  0  0  0  0
   -1.7218   -3.0953   -1.8560 O   0  0  0  0  0  0  0  0  0  0  0  0
   -2.0627   -4.1417   -2.7679 C   0  0  0  0  0  0  0  0  0  0  0  0
   -3.5792   -4.2458   -2.7688 C   0  0  0  0  0  0  0  0  0  0  0  0
   -3.9812   -5.2928   -3.6398 O   0  0  0  0  0  0  0  0  0  0  0  0
   -1.6660   -3.8912   -4.1174 C   0  0  0  0  0  0  0  0  0  0  0  0
   -2.0267   -4.9982   -4.9304 O   0  0  0  0  0  0  0  0  0  0  0  0
   -2.3681   -2.6314   -4.6295 C   0  0  0  0  0  0  0  0  0  0  0  0
   -3.7734   -2.8356   -4.6330 O   0  0  0  0  0  0  0  0  0  0  0  0
   -2.0206   -1.4546   -3.7125 C   0  0  0  0  0  0  0  0  0  0  0  0
   -2.7172   -0.2928   -4.1386 O   0  0  0  0  0  0  0  0  0  0  0  0
   -2.0148   -2.8987   -2.0504 C   0  0  0  0  0  0  0  0  0  0  0  0
   -2.7831   -4.1491   -2.4460 C   0  0  0  0  0  0  0  0  0  0  0  0
   -2.9712   -1.9027   -1.4151 C   0  0  0  0  0  0  0  0  0  0  0  0
   -0.9156   -3.2647   -1.0482 C   0  0  0  0  0  0  0  0  0  0  0  0
   -1.5310   -3.9500    0.1609 C   0  0  0  0  0  0  0  0  0  0  0  0
   -2.5119   -3.8319   -2.9605 C   0  0  0  0  0  0  0  0  0  0  0  0
   -1.4885   -4.7700   -3.5794 C   0  0  0  0  0  0  0  0  0  0  0  0
   -2.2135   -5.9030   -4.2873 C   0  0  0  0  0  0  0  0  0  0  0  0
    0.6891    0.0834    0.9445 H   0  0  0  0  0  0  0  0  0  0  0  0
    0.6891    0.7137   -0.6852 H   0  0  0  0  0  0  0  0  0  0  0  0
    2.1157   -0.0719   -0.0523 H   0  0  0  0  0  0  0  0  0  0  0  0
   -1.2799   -2.4404   -0.1617 H   0  0  0  0  0  0  0  0  0  0  0  0
    0.1468   -3.2260    0.4712 H   0  0  0  0  0  0  0  0  0  0  0  0
   -0.4864   -1.7996    1.2570 H   0  0  0  0  0  0  0  0  0  0  0  0
    0.5110   -2.7627   -2.1868 H   0  0  0  0  0  0  0  0  0  0  0  0
    1.2066   -0.6934   -3.5982 H   0  0  0  0  0  0  0  0  0  0  0  0
    2.0001   -0.0525   -2.1795 H   0  0  0  0  0  0  0  0  0  0  0  0
    3.6234   -1.0869   -3.6962 H   0  0  0  0  0  0  0  0  0  0  0  0
    3.5433   -1.9562   -2.1827 H   0  0  0  0  0  0  0  0  0  0  0  0
    2.4962   -1.9973   -5.7116 H   0  0  0  0  0  0  0  0  0  0  0  0
    1.6226   -3.5075   -5.6167 H   0  0  0  0  0  0  0  0  0  0  0  0
    0.9894   -2.0811   -4.8309 H   0  0  0  0  0  0  0  0  0  0  0  0
    5.4861   -3.4829   -5.2036 H   0  0  0  0  0  0  0  0  0  0  0  0
    2.6036   -1.3998   -7.2127 H   0  0  0  0  0  0  0  0  0  0  0  0
    1.7033   -3.2811   -5.8382 H   0  0  0  0  0  0  0  0  0  0  0  0
    2.3977   -2.5525   -4.4099 H   0  0  0  0  0  0  0  0  0  0  0  0
    2.0705   -0.5357   -4.0724 H   0  0  0  0  0  0  0  0  0  0  0  0
    2.0734    2.3316   -4.3083 H   0  0  0  0  0  0  0  0  0  0  0  0
    1.5521    3.4909   -6.3456 H   0  0  0  0  0  0  0  0  0  0  0  0
   -0.1410    3.1089   -6.1437 H   0  0  0  0  0  0  0  0  0  0  0  0
   -0.0976    4.2491   -4.1174 H   0  0  0  0  0  0  0  0  0  0  0  0
    0.2929    2.1750   -2.8146 H   0  0  0  0  0  0  0  0  0  0  0  0
   -1.4481    1.7978   -5.0491 H   0  0  0  0  0  0  0  0  0  0  0  0
    0.3009   -0.0946   -2.6274 H   0  0  0  0  0  0  0  0  0  0  0  0
   -1.4408   -0.1008   -4.8931 H   0  0  0  0  0  0  0  0  0  0  0  0
    4.0275    0.1367   -6.1196 H   0  0  0  0  0  0  0  0  0  0  0  0
    1.3888   -0.0891   -5.0032 H   0  0  0  0  0  0  0  0  0  0  0  0
    4.0294    0.2420   -3.6754 H   0  0  0  0  0  0  0  0  0  0  0  0
    2.5047   -2.1851   -3.8612 H   0  0  0  0  0  0  0  0  0  0  0  0
    5.7924   -1.0716   -4.7473 H   0  0  0  0  0  0  0  0  0  0  0  0
    4.7072   -2.3866   -2.4366 H   0  0  0  0  0  0  0  0  0  0  0  0
    1.5087   -4.7425   -3.4666 H   0  0  0  0  0  0  0  0  0  0  0  0
   -0.1146   -3.7082   -1.9499 H   0  0  0  0  0  0  0  0  0  0  0  0
    0.7590   -2.1979   -2.0448 H   0  0  0  0  0  0  0  0  0  0  0  0
   -1.1512   -2.2001   -3.5799 H   0  0  0  0  0  0  0  0  0  0  0  0
    0.3557   -2.1163   -4.4606 H   0  0  0  0  0  0  0  0  0  0  0  0
   -2.1217   -2.9474   -5.6788 H   0  0  0  0  0  0  0  0  0  0  0  0
   -0.5490   -2.9530   -6.4401 H   0  0  0  0  0  0  0  0  0  0  0  0
   -1.5405   -4.3914   -6.4726 H   0  0  0  0  0  0  0  0  0  0  0  0
    1.0742   -4.4003   -5.8238 H   0  0  0  0  0  0  0  0  0  0  0  0
    1.9894   -6.0925   -4.4929 H   0  0  0  0  0  0  0  0  0  0  0  0
    1.0108   -3.7986   -3.0102 H   0  0  0  0  0  0  0  0  0  0  0  0
    1.1437   -6.6017   -2.3725 H   0  0  0  0  0  0  0  0  0  0  0  0
    0.0127   -7.0532   -3.6253 H   0  0  0  0  0  0  0  0  0  0  0  0
   -1.1706   -5.9263   -1.8045 H   0  0  0  0  0  0  0  0  0  0  0  0
    0.4746   -5.1716    0.1349 H   0  0  0  0  0  0  0  0  0  0  0  0
    1.8138   -5.2090   -0.9868 H   0  0  0  0  0  0  0  0  0  0  0  0
    1.4245   -3.7310   -0.1400 H   0  0  0  0  0  0  0  0  0  0  0  0
    1.1719   -2.6458   -2.7006 H   0  0  0  0  0  0  0  0  0  0  0  0
    1.3091   -4.2038   -3.4792 H   0  0  0  0  0  0  0  0  0  0  0  0
   -0.9681   -4.0952   -4.0565 H   0  0  0  0  0  0  0  0  0  0  0  0
   -0.0215   -2.7485   -4.7378 H   0  0  0  0  0  0  0  0  0  0  0  0
   -0.8712   -1.3700   -3.0172 H   0  0  0  0  0  0  0  0  0  0  0  0
   -3.4335   -2.8151   -5.5434 H   0  0  0  0  0  0  0  0  0  0  0  0
   -1.8187   -6.1925   -5.4069 H   0  0  0  0  0  0  0  0  0  0  0  0
   -0.2803   -4.2261   -5.4819 H   0  0  0  0  0  0  0  0  0  0  0  0
   -0.8810   -3.7134   -3.9233 H   0  0  0  0  0  0  0  0  0  0  0  0
   -0.1032   -5.7142   -3.0293 H   0  0  0  0  0  0  0  0  0  0  0  0
   -3.3659   -6.2719   -3.6228 H   0  0  0  0  0  0  0  0  0  0  0  0
   -0.6017   -6.2002   -2.8390 H   0  0  0  0  0  0  0  0  0  0  0  0
   -2.9866   -4.8863   -1.6425 H   0  0  0  0  0  0  0  0  0  0  0  0
   -0.9798   -3.6280   -3.2672 H   0  0  0  0  0  0  0  0  0  0  0  0
   -4.5383   -4.0362   -3.3313 H   0  0  0  0  0  0  0  0  0  0  0  0
   -2.2866   -0.9436   -1.6552 H   0  0  0  0  0  0  0  0  0  0  0  0
   -1.5871   -5.0420   -2.4393 H   0  0  0  0  0  0  0  0  0  0  0  0
   -3.9229   -4.4549   -1.7773 H   0  0  0  0  0  0  0  0  0  0  0  0
   -4.0000   -3.3211   -3.1046 H   0  0  0  0  0  0  0  0  0  0  0  0
   -3.6600   -5.0973   -4.5664 H   0  0  0  0  0  0  0  0  0  0  0  0
   -0.6061   -3.7502   -4.1573 H   0  0  0  0  0  0  0  0  0  0  0  0
   -3.0173   -5.1302   -4.8932 H   0  0  0  0  0  0  0  0  0  0  0  0
   -2.0400   -2.4183   -5.6254 H   0  0  0  0  0  0  0  0  0  0  0  0
   -4.0835   -3.0350   -3.7034 H   0  0  0  0  0  0  0  0  0  0  0  0
   -0.9678   -1.2676   -3.7523 H   0  0  0  0  0  0  0  0  0  0  0  0
   -3.7020   -0.4628   -4.1030 H   0  0  0  0  0  0  0  0  0  0  0  0
   -3.2284   -4.5844   -1.5759 H   0  0  0  0  0  0  0  0  0  0  0  0
   -3.5490   -3.8903   -3.1470 H   0  0  0  0  0  0  0  0  0  0  0  0
   -2.1129   -4.8528   -2.8937 H   0  0  0  0  0  0  0  0  0  0  0  0
   -2.4333   -1.0218   -1.1328 H   0  0  0  0  0  0  0  0  0  0  0  0
   -3.7355   -1.6439   -2.1179 H   0  0  0  0  0  0  0  0  0  0  0  0
   -3.4182   -2.3410   -0.5474 H   0  0  0  0  0  0  0  0  0  0  0  0
   -0.4105   -2.3768   -0.7298 H   0  0  0  0  0  0  0  0  0  0  0  0
   -2.2291   -3.2879    0.6292 H   0  0  0  0  0  0  0  0  0  0  0  0
   -2.0375   -4.8389   -0.1524 H   0  0  0  0  0  0  0  0  0  0  0  0
   -3.1099   -4.3713   -2.2560 H   0  0  0  0  0  0  0  0  0  0  0  0
   -2.0063   -3.0322   -2.4607 H   0  0  0  0  0  0  0  0  0  0  0  0
   -1.4972   -6.5645   -4.7280 H   0  0  0  0  0  0  0  0  0  0  0  0
   -2.8092   -6.4419   -3.5805 H   0  0  0  0  0  0  0  0  0  0  0  0
   -2.8445   -5.5001   -5.0518 H   0  0  0  0  0  0  0  0  0  0  0  0
  1  2  1  0  0  0  0
  1 76  1  0  0  0  0
  1 77  1  0  0  0  0
  1 78  1  0  0  0  0
  2  3  1  0  0  0  0
  2  4  2  0  0  0  0
  3 79  1  0  0  0  0
  3 80  1  0  0  0  0
  3 81  1  0  0  0  0
  4  5  1  0  0  0  0
  4 82  1  0  0  0  0
  5  6  1  0  0  0  0
  5 83  1  0  0  0  0
  5 84  1  0  0  0  0
  6  7  1  0  0  0  0
  6 85  1  0  0  0  0
  6 86  1  0  0  0  0
  7  8  1  0  0  0  0
  7  9  1  0  0  0  0
  7 30  1  0  0  0  0
  8 87  1  0  0  0  0
  8 88  1  0  0  0  0
  8 89  1  0  0  0  0
  9 10  1  0  0  0  0
 10 11  1  0  0  0  0
 10 28  1  0  0  0  0
 10 90  1  0  0  0  0
 11 12  1  0  0  0  0
 12 13  1  0  0  0  0
 12 24  1  0  0  0  0
 12 91  1  0  0  0  0
 13 14  1  0  0  0  0
 13 92  1  0  0  0  0
 13 93  1  0  0  0  0
 14 15  1  0  0  0  0
 15 16  1  0  0  0  0
 15 22  1  0  0  0  0
 15 94  1  0  0  0  0
 16 17  1  0  0  0  0
 17 18  1  0  0  0  0
 17 20  1  0  0  0  0
 17 95  1  0  0  0  0
 18 19  1  0  0  0  0
 18 96  1  0  0  0  0
 18 97  1  0  0  0  0
 19 98  1  0  0  0  0
 20 21  1  0  0  0  0
 20 22  1  0  0  0  0
 20 99  1  0  0  0  0
 21100  1  0  0  0  0
 22 23  1  0  0  0  0
 22101  1  0  0  0  0
 23102  1  0  0  0  0
 24 25  1  0  0  0  0
 24 26  1  0  0  0  0
 24103  1  0  0  0  0
 25104  1  0  0  0  0
 26 27  1  0  0  0  0
 26 28  1  0  0  0  0
 26105  1  0  0  0  0
 27106  1  0  0  0  0
 28 29  1  0  0  0  0
 28107  1  0  0  0  0
 29108  1  0  0  0  0
 30 31  1  0  0  0  0
 30 35  1  0  0  0  0
 30109  1  0  0  0  0
 31 32  1  0  0  0  0
 31110  1  0  0  0  0
 31111  1  0  0  0  0
 32 33  1  0  0  0  0
 32112  1  0  0  0  0
 32113  1  0  0  0  0
 33 34  1  0  0  0  0
 33 35  1  0  0  0  0
 33 74  1  0  0  0  0
 34114  1  0  0  0  0
 34115  1  0  0  0  0
 34116  1  0  0  0  0
 35 36  1  0  0  0  0
 35117  1  0  0  0  0
 36 37  1  0  0  0  0
 36 38  1  0  0  0  0
 36118  1  0  0  0  0
 37119  1  0  0  0  0
 38 39  1  0  0  0  0
 38120  1  0  0  0  0
 38121  1  0  0  0  0
 39 40  1  0  0  0  0
 39 74  1  0  0  0  0
 39122  1  0  0  0  0
 40 41  1  0  0  0  0
 40 42  1  0  0  0  0
 40 71  1  0  0  0  0
 41123  1  0  0  0  0
 41124  1  0  0  0  0
 41125  1  0  0  0  0
 42 43  1  0  0  0  0
 42126  1  0  0  0  0
 42127  1  0  0  0  0
 43 44  1  0  0  0  0
 43128  1  0  0  0  0
 43129  1  0  0  0  0
 44 45  1  0  0  0  0
 44 68  1  0  0  0  0
 44130  1  0  0  0  0
 45 46  1  0  0  0  0
 46 47  1  0  0  0  0
 46 55  1  0  0  0  0
 46131  1  0  0  0  0
 47 48  1  0  0  0  0
 48 49  1  0  0  0  0
 48 51  1  0  0  0  0
 48132  1  0  0  0  0
 49 50  1  0  0  0  0
 49133  1  0  0  0  0
 49134  1  0  0  0  0
 50135  1  0  0  0  0
 51 52  1  0  0  0  0
 51 53  1  0  0  0  0
 51136  1  0  0  0  0
 52137  1  0  0  0  0
 53 54  1  0  0  0  0
 53 55  1  0  0  0  0
 53138  1  0  0  0  0
 54139  1  0  0  0  0
 55 56  1  0  0  0  0
 55140  1  0  0  0  0
 56 57  1  0  0  0  0
 57 58  1  0  0  0  0
 57 66  1  0  0  0  0
 57141  1  0  0  0  0
 58 59  1  0  0  0  0
 59 60  1  0  0  0  0
 59 62  1  0  0  0  0
 59142  1  0  0  0  0
 60 61  1  0  0  0  0
 60143  1  0  0  0  0
 60144  1  0  0  0  0
 61145  1  0  0  0  0
 62 63  1  0  0  0  0
 62 64  1  0  0  0  0
 62146  1  0  0  0  0
 63147  1  0  0  0  0
 64 65  1  0  0  0  0
 64 66  1  0  0  0  0
 64148  1  0  0  0  0
 65149  1  0  0  0  0
 66 67  1  0  0  0  0
 66150  1  0  0  0  0
 67151  1  0  0  0  0
 68 69  1  0  0  0  0
 68 70  1  0  0  0  0
 68 71  1  0  0  0  0
 69152  1  0  0  0  0
 69153  1  0  0  0  0
 69154  1  0  0  0  0
 70155  1  0  0  0  0
 70156  1  0  0  0  0
 70157  1  0  0  0  0
 71 72  1  0  0  0  0
 71158  1  0  0  0  0
 72 73  1  0  0  0  0
 72159  1  0  0  0  0
 72160  1  0  0  0  0
 73 74  1  0  0  0  0
 73161  1  0  0  0  0
 73162  1  0  0  0  0
 74 75  1  0  0  0  0
 75163  1  0  0  0  0
 75164  1  0  0  0  0
 75165  1  0  0  0  0
M  END
