REMARK  Name = 
REMARK  27 active torsions:
REMARK  status: ('A' for Active; 'I' for Inactive)
REMARK    1  A    between atoms: C_1  and  C_2
REMARK    2  A    between atoms: C_2  and  C_3
REMARK    3  A    between atoms: C_4  and  C_5
REMARK    4  A    between atoms: C_5  and  C_6
REMARK    5  A    between atoms: C_6  and  C_7
REMARK    6  A    between atoms: C_7  and  C_8
REMARK    7  A    between atoms: C_7  and  O_9
REMARK    8  A    between atoms: C_7  and  C_10
REMARK    9  A    between atoms: C_13  and  C_14
REMARK   10  A    between atoms: C_16  and  O_17
REMARK   11  A    between atoms: C_20  and  C_21
REMARK   12  A    between atoms: C_24  and  O_25
REMARK   13  A    between atoms: O_25  and  C_26
REMARK   14  A    between atoms: C_28  and  C_29
REMARK   15  A    between atoms: C_29  and  O_30
REMARK   16  A    between atoms: C_31  and  O_32
REMARK   17  A    between atoms: C_33  and  O_34
REMARK   18  A    between atoms: C_35  and  O_36
REMARK   19  A    between atoms: O_36  and  C_37
REMARK   20  A    between atoms: C_39  and  C_40
REMARK   21  A    between atoms: C_40  and  O_41
REMARK   22  A    between atoms: C_42  and  O_43
REMARK   23  A    between atoms: C_44  and  O_45
REMARK   24  A    between atoms: C_46  and  O_47
REMARK   25  A    between atoms: C_48  and  C_49
REMARK   26  A    between atoms: C_48  and  C_50
REMARK   27  A    between atoms: C_54  and  C_55
REMARK                            x       y       z     vdW  Elec       q    Type
REMARK                         _______ _______ _______ _____ _____    ______ ____
ROOT
ATOM      1  C   UNL     1       1.762  -3.446   3.140  0.00  0.00    +0.000 C 
ATOM      2  C   UNL     1       0.722  -2.595   2.408  0.00  0.00    +0.000 C 
ATOM      3  C   UNL     1       1.269  -2.191   1.036  0.00  0.00    +0.000 C 
ATOM      4  C   UNL     1       0.402  -2.811  -0.061  0.00  0.00    +0.000 C 
ATOM      5  C   UNL     1      -0.852  -2.600  -0.893  0.00  0.00    +0.000 C 
ATOM      6  C   UNL     1       1.051  -4.482   4.012  0.00  0.00    +0.000 C 
ATOM      7  C   UNL     1       1.979  -5.677   4.244  0.00  0.00    +0.000 C 
ATOM      8  C   UNL     1       1.154  -6.965   4.280  0.00  0.00    +0.000 C 
ATOM      9  C   UNL     1       1.903  -8.071   3.534  0.00  0.00    +0.000 C 
ATOM     10  C   UNL     1       0.968  -8.721   2.512  0.00  0.00    +0.000 C 
ATOM     11  C   UNL     1       0.017  -9.292   3.552  0.00  0.00    +0.000 C 
ATOM     12  C   UNL     1       1.759  -9.075   1.251  0.00  0.00    +0.000 C 
ATOM     13  C   UNL     1       0.856  -8.978   0.048  0.00  0.00    +0.000 C 
ATOM     14  C   UNL     1       0.644  -7.788  -0.537  0.00  0.00    +0.000 C 
ATOM     15  C   UNL     1      -0.225  -7.770  -1.700  0.00  0.00    +0.000 C 
ATOM     16  C   UNL     1      -0.005  -9.032  -2.518  0.00  0.00    +0.000 C 
ATOM     17  C   UNL     1      -1.675  -7.708  -1.248  0.00  0.00    +0.000 C 
ATOM     18  C   UNL     1       0.096  -6.543  -2.555  0.00  0.00    +0.000 C 
ATOM     19  C   UNL     1       0.789  -5.558  -1.743  0.00  0.00    +0.000 C 
ATOM     20  C   UNL     1       0.602  -4.266  -2.058  0.00  0.00    +0.000 C 
ATOM     21  C   UNL     1       1.282  -3.189  -1.254  0.00  0.00    +0.000 C 
ATOM     22  C   UNL     1       2.084  -2.180  -2.061  0.00  0.00    +0.000 C 
ENDROOT
BRANCH   7  23
ATOM     23  O   UNL     1       2.927  -5.752   3.189  0.00  0.00    +0.000 OA
ATOM     24  H   UNL     1       2.448  -5.866   2.319  0.00  0.00    +0.000 HD
ENDBRANCH   7  23
BRANCH   1  25
ATOM     25  C   UNL     1       2.636  -4.159   2.121  0.00  0.00    +0.000 C 
ATOM     26  C   UNL     1       1.876  -5.340   1.540  0.00  0.00    +0.000 C 
BRANCH  25  27
ATOM     27  O   UNL     1       3.820  -4.623   2.755  0.00  0.00    +0.000 OA
ATOM     28  H   UNL     1       4.394  -5.091   2.084  0.00  0.00    +0.000 HD
ENDBRANCH  25  27
BRANCH  25  29
ATOM     29  C   UNL     1       3.003  -3.194   1.006  0.00  0.00    +0.000 C 
BRANCH  29  30
ATOM     30  C   UNL     1       1.737  -2.697   0.328  0.00  0.00    +0.000 C 
BRANCH  30  34
ATOM     31  C   UNL     1       1.041   0.071  -0.057  0.00  0.00    +0.000 C 
ATOM     32  C   UNL     1       0.534  -0.677   1.165  0.00  0.00    +0.000 C 
ATOM     33  C   UNL     1      -0.340   0.036   2.184  0.00  0.00    +0.000 C 
ATOM     34  C   UNL     1       0.863  -1.984   1.347  0.00  0.00    +0.000 C 
ENDBRANCH  30  34
ENDBRANCH  29  30
ENDBRANCH  25  29
ENDBRANCH   1  25
BRANCH  14  35
ATOM     35  O   UNL     1      -0.033  -7.012   0.441  0.00  0.00    +0.000 OA
BRANCH  35  36
ATOM     36  C   UNL     1      -1.274  -7.625   0.755  0.00  0.00    +0.000 C 
ATOM     37  O   UNL     1      -1.833  -7.764  -0.663  0.00  0.00    +0.000 OA
ATOM     38  C   UNL     1      -0.867  -8.411  -1.494  0.00  0.00    +0.000 C 
ATOM     39  C   UNL     1      -0.523  -9.731  -1.068  0.00  0.00    +0.000 C 
ATOM     40  C   UNL     1       0.089  -9.672   0.334  0.00  0.00    +0.000 C 
ATOM     41  C   UNL     1      -0.911  -9.014   1.290  0.00  0.00    +0.000 C 
BRANCH  40  42
ATOM     42  O   UNL     1       1.288  -8.912   0.300  0.00  0.00    +0.000 OA
ATOM     43  H   UNL     1       1.087  -7.985  -0.015  0.00  0.00    +0.000 HD
ENDBRANCH  40  42
BRANCH  39  44
ATOM     44  O   UNL     1       0.419 -10.290  -1.972  0.00  0.00    +0.000 OA
ATOM     45  H   UNL     1       1.241  -9.721  -1.991  0.00  0.00    +0.000 HD
ENDBRANCH  39  44
BRANCH  38  46
ATOM     46  C   UNL     1       0.404  -7.581  -1.417  0.00  0.00    +0.000 C 
BRANCH  46  47
ATOM     47  O   UNL     1       1.399  -8.161  -2.248  0.00  0.00    +0.000 OA
ATOM     48  H   UNL     1       1.591  -9.092  -1.938  0.00  0.00    +0.000 HD
ENDBRANCH  46  47
ENDBRANCH  38  46
BRANCH  41  49
ATOM     49  O   UNL     1      -0.331  -8.893   2.581  0.00  0.00    +0.000 OA
BRANCH  49  50
ATOM     50  C   UNL     1       0.842  -8.096   2.501  0.00  0.00    +0.000 C 
ATOM     51  O   UNL     1       2.251  -8.594   2.172  0.00  0.00    +0.000 OA
ATOM     52  C   UNL     1       2.468  -8.509   0.762  0.00  0.00    +0.000 C 
ATOM     53  C   UNL     1       2.380  -7.184   0.236  0.00  0.00    +0.000 C 
ATOM     54  C   UNL     1       0.975  -6.629   0.487  0.00  0.00    +0.000 C 
ATOM     55  C   UNL     1       0.684  -6.660   1.991  0.00  0.00    +0.000 C 
BRANCH  55  56
ATOM     56  O   UNL     1      -0.640  -6.208   2.232  0.00  0.00    +0.000 OA
ATOM     57  H   UNL     1      -1.288  -6.803   1.755  0.00  0.00    +0.000 HD
ENDBRANCH  55  56
BRANCH  54  58
ATOM     58  O   UNL     1       0.019  -7.421  -0.201  0.00  0.00    +0.000 OA
ATOM     59  H   UNL     1       0.068  -8.364   0.128  0.00  0.00    +0.000 HD
ENDBRANCH  54  58
BRANCH  53  60
ATOM     60  O   UNL     1       2.636  -7.209  -1.160  0.00  0.00    +0.000 OA
ATOM     61  H   UNL     1       1.962  -7.793  -1.612  0.00  0.00    +0.000 HD
ENDBRANCH  53  60
BRANCH  52  62
ATOM     62  C   UNL     1       1.365  -9.318   0.099  0.00  0.00    +0.000 C 
BRANCH  62  63
ATOM     63  O   UNL     1       1.543  -9.296  -1.310  0.00  0.00    +0.000 OA
ATOM     64  H   UNL     1       1.505  -8.351  -1.636  0.00  0.00    +0.000 HD
ENDBRANCH  62  63
ENDBRANCH  52  62
ENDBRANCH  49  50
ENDBRANCH  41  49
ENDBRANCH  35  36
ENDBRANCH  14  35
TORSDOF 19
