
 OpenBabel03132512093D

106110  0  0  0  0  0  0  0  0999 V2000
    0.9438   -0.0303   -0.0770 C   0  0  0  0  0  0  0  0  0  0  0  0
    0.4372    1.3161   -0.5678 C   0  0  0  0  0  0  0  0  0  0  0  0
   -0.4367    1.3927   -1.8092 C   0  0  0  0  0  0  0  0  0  0  0  0
    0.7658    2.4526    0.1039 C   0  0  0  0  0  0  0  0  0  0  0  0
    1.6397    2.3760    1.3452 C   0  0  0  0  0  0  0  0  0  0  0  0
    2.9063    3.1865    1.1239 C   0  0  0  0  0  0  0  0  0  0  0  0
    2.5391    4.6361    0.8515 C   0  0  0  0  0  0  0  0  0  0  0  0
    1.7791    5.1985    2.0416 C   0  0  0  0  0  0  0  0  0  0  0  0
    3.7225    5.3933    0.6448 O   0  0  0  0  0  0  0  0  0  0  0  0
    1.6653    4.7127   -0.3899 C   0  0  0  0  0  0  0  0  0  0  0  0
    2.0868    5.9161   -1.2365 C   0  0  0  0  0  0  0  0  0  0  0  0
    2.7121    6.9814   -0.3329 C   0  0  0  0  0  0  0  0  0  0  0  0
    4.1802    7.1769   -0.7152 C   0  0  0  0  0  0  0  0  0  0  0  0
    5.1082    7.9333   -1.6517 C   0  0  0  0  0  0  0  0  0  0  0  0
    1.8291    3.4309   -1.2082 C   0  0  0  0  0  0  0  0  0  0  0  0
    2.0174    2.2422   -0.2628 C   0  0  0  0  0  0  0  0  0  0  0  0
    2.5396    2.7009    0.9754 O   0  0  0  0  0  0  0  0  0  0  0  0
    2.9919    1.2422   -0.8875 C   0  0  0  0  0  0  0  0  0  0  0  0
    3.9288    0.6996    0.1932 C   0  0  0  0  0  0  0  0  0  0  0  0
    5.3797    0.8336   -0.2740 C   0  0  0  0  0  0  0  0  0  0  0  0
    5.2338   -0.1435   -1.4291 C   0  0  0  0  0  0  0  0  0  0  0  0
    6.2671    1.1961    0.9186 C   0  0  0  0  0  0  0  0  0  0  0  0
    7.4229    2.0411    0.4462 C   0  0  0  0  0  0  0  0  0  0  0  0
    7.2652    3.3647    0.2871 C   0  0  0  0  0  0  0  0  0  0  0  0
    6.3150    3.4990   -0.7595 O   0  0  0  0  0  0  0  0  0  0  0  0
    6.8376    2.9272   -1.9496 C   0  0  0  0  0  0  0  0  0  0  0  0
    8.1231    3.6704   -2.3206 O   0  0  0  0  0  0  0  0  0  0  0  0
    9.1055    3.4582   -1.3046 C   0  0  0  0  0  0  0  0  0  0  0  0
    8.4890    3.9218    0.0052 C   0  0  0  0  0  0  0  0  0  0  0  0
    9.4317    3.7614    1.0550 O   0  0  0  0  0  0  0  0  0  0  0  0
    9.4728    2.0891   -1.1255 C   0  0  0  0  0  0  0  0  0  0  0  0
   10.4680    1.9937   -0.1170 O   0  0  0  0  0  0  0  0  0  0  0  0
    8.2419    1.2820   -0.7061 C   0  0  0  0  0  0  0  0  0  0  0  0
    7.7615    1.7576    0.5426 O   0  0  0  0  0  0  0  0  0  0  0  0
    7.1519    1.4383   -1.7711 C   0  0  0  0  0  0  0  0  0  0  0  0
    5.9807    0.7467   -1.3632 O   0  0  0  0  0  0  0  0  0  0  0  0
    8.4231    4.1185   -0.1569 C   0  0  0  0  0  0  0  0  0  0  0  0
    9.6792    3.5370    0.4711 C   0  0  0  0  0  0  0  0  0  0  0  0
    8.5312    4.0373   -1.6709 C   0  0  0  0  0  0  0  0  0  0  0  0
    8.2697    5.5812    0.2664 C   0  0  0  0  0  0  0  0  0  0  0  0
    6.8700    5.8611    0.5324 C   0  0  0  0  0  0  0  0  0  0  0  0
    6.4423    7.1118    0.2965 C   0  0  0  0  0  0  0  0  0  0  0  0
    4.9998    7.4730    0.5417 C   0  0  0  0  0  0  0  0  0  0  0  0
    4.7729    8.6874    1.4272 C   0  0  0  0  0  0  0  0  0  0  0  0
    0.5872   -0.8034   -0.7250 H   0  0  0  0  0  0  0  0  0  0  0  0
    0.5872   -0.2049    0.9166 H   0  0  0  0  0  0  0  0  0  0  0  0
    2.0138   -0.0303   -0.0770 H   0  0  0  0  0  0  0  0  0  0  0  0
   -1.3818    1.8246   -1.5539 H   0  0  0  0  0  0  0  0  0  0  0  0
    0.0448    1.9993   -2.5475 H   0  0  0  0  0  0  0  0  0  0  0  0
   -0.5883    0.4082   -2.1999 H   0  0  0  0  0  0  0  0  0  0  0  0
    0.4091    3.4004   -0.2417 H   0  0  0  0  0  0  0  0  0  0  0  0
    1.1047    2.7719    2.1830 H   0  0  0  0  0  0  0  0  0  0  0  0
    1.8982    1.3555    1.5370 H   0  0  0  0  0  0  0  0  0  0  0  0
    3.5215    3.1326    1.9977 H   0  0  0  0  0  0  0  0  0  0  0  0
    3.4413    2.7906    0.2861 H   0  0  0  0  0  0  0  0  0  0  0  0
    2.3943    5.1446    2.9154 H   0  0  0  0  0  0  0  0  0  0  0  0
    1.5207    6.2190    1.8498 H   0  0  0  0  0  0  0  0  0  0  0  0
    0.8875    4.6280    2.1974 H   0  0  0  0  0  0  0  0  0  0  0  0
    4.2974    5.3429    1.4614 H   0  0  0  0  0  0  0  0  0  0  0  0
    0.6412    4.8220   -0.0995 H   0  0  0  0  0  0  0  0  0  0  0  0
    2.8024    5.6043   -1.9683 H   0  0  0  0  0  0  0  0  0  0  0  0
    1.2287    6.3244   -1.7282 H   0  0  0  0  0  0  0  0  0  0  0  0
    2.6484    6.6655    0.6875 H   0  0  0  0  0  0  0  0  0  0  0  0
    2.1860    7.9052   -0.4539 H   0  0  0  0  0  0  0  0  0  0  0  0
    4.8614    7.6973   -2.6657 H   0  0  0  0  0  0  0  0  0  0  0  0
    4.9953    8.9854   -1.4928 H   0  0  0  0  0  0  0  0  0  0  0  0
    6.1212    7.6497   -1.4558 H   0  0  0  0  0  0  0  0  0  0  0  0
    1.4752    2.8437   -2.0298 H   0  0  0  0  0  0  0  0  0  0  0  0
    1.0740    1.7651   -0.0977 H   0  0  0  0  0  0  0  0  0  0  0  0
    3.4212    3.1468    0.8207 H   0  0  0  0  0  0  0  0  0  0  0  0
    2.4427    0.4333   -1.3222 H   0  0  0  0  0  0  0  0  0  0  0  0
    3.5673    1.7311   -1.6456 H   0  0  0  0  0  0  0  0  0  0  0  0
    3.6349   -0.1541    0.7674 H   0  0  0  0  0  0  0  0  0  0  0  0
    4.8204    0.3640   -2.2755 H   0  0  0  0  0  0  0  0  0  0  0  0
    6.1943   -0.5396   -1.6847 H   0  0  0  0  0  0  0  0  0  0  0  0
    4.5838   -0.9428   -1.1401 H   0  0  0  0  0  0  0  0  0  0  0  0
    5.6937    1.7451    1.6361 H   0  0  0  0  0  0  0  0  0  0  0  0
    6.6408    0.3010    1.3703 H   0  0  0  0  0  0  0  0  0  0  0  0
    8.1238    1.9718    1.2517 H   0  0  0  0  0  0  0  0  0  0  0  0
    7.7243    1.6495   -0.5028 H   0  0  0  0  0  0  0  0  0  0  0  0
    6.9592    3.7687    1.2295 H   0  0  0  0  0  0  0  0  0  0  0  0
    6.1031    3.0179   -2.7223 H   0  0  0  0  0  0  0  0  0  0  0  0
    9.9840    4.0104   -1.5659 H   0  0  0  0  0  0  0  0  0  0  0  0
    8.2159    4.9532   -0.0745 H   0  0  0  0  0  0  0  0  0  0  0  0
    7.6178    3.3374    0.2158 H   0  0  0  0  0  0  0  0  0  0  0  0
    9.6869    2.7974    1.1295 H   0  0  0  0  0  0  0  0  0  0  0  0
    9.8584    1.7000   -2.0446 H   0  0  0  0  0  0  0  0  0  0  0  0
   10.1078    2.3573    0.7421 H   0  0  0  0  0  0  0  0  0  0  0  0
    8.5057    0.2493   -0.6126 H   0  0  0  0  0  0  0  0  0  0  0  0
    7.5139    2.7229    0.4588 H   0  0  0  0  0  0  0  0  0  0  0  0
    7.4958    1.0306   -2.6987 H   0  0  0  0  0  0  0  0  0  0  0  0
    5.6554    1.1244   -0.4963 H   0  0  0  0  0  0  0  0  0  0  0  0
    9.7855    2.5143    0.1750 H   0  0  0  0  0  0  0  0  0  0  0  0
   10.5323    4.0937    0.1435 H   0  0  0  0  0  0  0  0  0  0  0  0
    9.6042    3.5937    1.5370 H   0  0  0  0  0  0  0  0  0  0  0  0
    7.6471    4.4458   -2.1140 H   0  0  0  0  0  0  0  0  0  0  0  0
    9.3842    4.5944   -1.9979 H   0  0  0  0  0  0  0  0  0  0  0  0
    8.6385    3.0145   -1.9664 H   0  0  0  0  0  0  0  0  0  0  0  0
    8.9628    6.3908    0.3619 H   0  0  0  0  0  0  0  0  0  0  0  0
    6.3285    5.2479   -0.1572 H   0  0  0  0  0  0  0  0  0  0  0  0
    6.6889    5.6475    1.5651 H   0  0  0  0  0  0  0  0  0  0  0  0
    6.9689    7.6935    1.0240 H   0  0  0  0  0  0  0  0  0  0  0  0
    6.6413    7.3172   -0.7346 H   0  0  0  0  0  0  0  0  0  0  0  0
    4.9155    9.5790    0.8532 H   0  0  0  0  0  0  0  0  0  0  0  0
    3.7747    8.6667    1.8120 H   0  0  0  0  0  0  0  0  0  0  0  0
    5.4688    8.6712    2.2398 H   0  0  0  0  0  0  0  0  0  0  0  0
  1  2  1  0  0  0  0
  1 45  1  0  0  0  0
  1 46  1  0  0  0  0
  1 47  1  0  0  0  0
  2  3  1  0  0  0  0
  2  4  2  0  0  0  0
  3 48  1  0  0  0  0
  3 49  1  0  0  0  0
  3 50  1  0  0  0  0
  4  5  1  0  0  0  0
  4 51  1  0  0  0  0
  5  6  1  0  0  0  0
  5 52  1  0  0  0  0
  5 53  1  0  0  0  0
  6  7  1  0  0  0  0
  6 54  1  0  0  0  0
  6 55  1  0  0  0  0
  7  8  1  0  0  0  0
  7  9  1  0  0  0  0
  7 10  1  0  0  0  0
  8 56  1  0  0  0  0
  8 57  1  0  0  0  0
  8 58  1  0  0  0  0
  9 59  1  0  0  0  0
 10 11  1  0  0  0  0
 10 15  1  0  0  0  0
 10 60  1  0  0  0  0
 11 12  1  0  0  0  0
 11 61  1  0  0  0  0
 11 62  1  0  0  0  0
 12 13  1  0  0  0  0
 12 63  1  0  0  0  0
 12 64  1  0  0  0  0
 13 14  1  0  0  0  0
 13 15  1  0  0  0  0
 13 43  1  0  0  0  0
 14 65  1  0  0  0  0
 14 66  1  0  0  0  0
 14 67  1  0  0  0  0
 15 16  1  0  0  0  0
 15 68  1  0  0  0  0
 16 17  1  0  0  0  0
 16 18  1  0  0  0  0
 16 69  1  0  0  0  0
 17 70  1  0  0  0  0
 18 19  1  0  0  0  0
 18 71  1  0  0  0  0
 18 72  1  0  0  0  0
 19 20  1  0  0  0  0
 19 43  1  0  0  0  0
 19 73  1  0  0  0  0
 20 21  1  0  0  0  0
 20 22  1  0  0  0  0
 20 40  1  0  0  0  0
 21 74  1  0  0  0  0
 21 75  1  0  0  0  0
 21 76  1  0  0  0  0
 22 23  1  0  0  0  0
 22 77  1  0  0  0  0
 22 78  1  0  0  0  0
 23 24  1  0  0  0  0
 23 79  1  0  0  0  0
 23 80  1  0  0  0  0
 24 25  1  0  0  0  0
 24 37  1  0  0  0  0
 24 81  1  0  0  0  0
 25 26  1  0  0  0  0
 26 27  1  0  0  0  0
 26 35  1  0  0  0  0
 26 82  1  0  0  0  0
 27 28  1  0  0  0  0
 28 29  1  0  0  0  0
 28 31  1  0  0  0  0
 28 83  1  0  0  0  0
 29 30  1  0  0  0  0
 29 84  1  0  0  0  0
 29 85  1  0  0  0  0
 30 86  1  0  0  0  0
 31 32  1  0  0  0  0
 31 33  1  0  0  0  0
 31 87  1  0  0  0  0
 32 88  1  0  0  0  0
 33 34  1  0  0  0  0
 33 35  1  0  0  0  0
 33 89  1  0  0  0  0
 34 90  1  0  0  0  0
 35 36  1  0  0  0  0
 35 91  1  0  0  0  0
 36 92  1  0  0  0  0
 37 38  1  0  0  0  0
 37 39  1  0  0  0  0
 37 40  1  0  0  0  0
 38 93  1  0  0  0  0
 38 94  1  0  0  0  0
 38 95  1  0  0  0  0
 39 96  1  0  0  0  0
 39 97  1  0  0  0  0
 39 98  1  0  0  0  0
 40 41  1  0  0  0  0
 40 99  1  0  0  0  0
 41 42  1  0  0  0  0
 41100  1  0  0  0  0
 41101  1  0  0  0  0
 42 43  1  0  0  0  0
 42102  1  0  0  0  0
 42103  1  0  0  0  0
 43 44  1  0  0  0  0
 44104  1  0  0  0  0
 44105  1  0  0  0  0
 44106  1  0  0  0  0
M  END
