
 OpenBabel03132514253D

106110  0  0  0  0  0  0  0  0999 V2000
    0.9588   -0.0432    0.0802 C   0  0  0  0  0  0  0  0  0  0  0  0
    0.4521    0.0427   -1.3503 C   0  0  0  0  0  0  0  0  0  0  0  0
   -0.4217   -1.0654   -1.9148 C   0  0  0  0  0  0  0  0  0  0  0  0
    0.7808    1.1114   -2.1252 C   0  0  0  0  0  0  0  0  0  0  0  0
    1.6547    2.2196   -1.5606 C   0  0  0  0  0  0  0  0  0  0  0  0
    2.9213    2.3394   -2.3923 C   0  0  0  0  0  0  0  0  0  0  0  0
    2.5541    2.6667   -3.8305 C   0  0  0  0  0  0  0  0  0  0  0  0
    1.7941    3.9824   -3.8725 C   0  0  0  0  0  0  0  0  0  0  0  0
    3.7375    2.7786   -4.6074 O   0  0  0  0  0  0  0  0  0  0  0  0
    1.6802    1.5586   -4.3951 C   0  0  0  0  0  0  0  0  0  0  0  0
    0.5140    2.3341   -5.0123 C   0  0  0  0  0  0  0  0  0  0  0  0
    0.4290    3.7218   -4.3724 C   0  0  0  0  0  0  0  0  0  0  0  0
    0.6919    4.7905   -5.4347 C   0  0  0  0  0  0  0  0  0  0  0  0
    0.0261    5.6342   -6.5095 C   0  0  0  0  0  0  0  0  0  0  0  0
    2.2977    0.6402   -5.4510 C   0  0  0  0  0  0  0  0  0  0  0  0
    3.7548    0.3486   -5.0849 C   0  0  0  0  0  0  0  0  0  0  0  0
    4.2557    1.3962   -4.2675 O   0  0  0  0  0  0  0  0  0  0  0  0
    4.5928    0.2531   -6.3609 C   0  0  0  0  0  0  0  0  0  0  0  0
    5.9401    0.9428   -6.1395 C   0  0  0  0  0  0  0  0  0  0  0  0
    6.1991    1.9349   -7.2754 C   0  0  0  0  0  0  0  0  0  0  0  0
    6.2870    0.8713   -8.3577 C   0  0  0  0  0  0  0  0  0  0  0  0
    6.8999    3.1755   -6.7178 C   0  0  0  0  0  0  0  0  0  0  0  0
    6.4980    4.3844   -7.5240 C   0  0  0  0  0  0  0  0  0  0  0  0
    5.3529    5.0267   -7.2443 C   0  0  0  0  0  0  0  0  0  0  0  0
    4.3256    4.0890   -7.5301 O   0  0  0  0  0  0  0  0  0  0  0  0
    4.3656    3.7485   -8.9081 C   0  0  0  0  0  0  0  0  0  0  0  0
    4.1631    5.0090   -9.7522 O   0  0  0  0  0  0  0  0  0  0  0  0
    5.2321    5.9246   -9.5039 C   0  0  0  0  0  0  0  0  0  0  0  0
    5.2450    6.1881   -8.0070 C   0  0  0  0  0  0  0  0  0  0  0  0
    6.2735    7.1174   -7.6989 O   0  0  0  0  0  0  0  0  0  0  0  0
    6.5241    5.4187   -9.8446 C   0  0  0  0  0  0  0  0  0  0  0  0
    7.5052    6.4118   -9.5850 O   0  0  0  0  0  0  0  0  0  0  0  0
    6.8220    4.1747   -9.0043 C   0  0  0  0  0  0  0  0  0  0  0  0
    6.8542    4.5241   -7.6283 O   0  0  0  0  0  0  0  0  0  0  0  0
    5.7267    3.1312   -9.2455 C   0  0  0  0  0  0  0  0  0  0  0  0
    5.9559    1.9968   -8.4227 O   0  0  0  0  0  0  0  0  0  0  0  0
    5.0351    6.1906   -8.0510 C   0  0  0  0  0  0  0  0  0  0  0  0
    6.3125    6.9474   -8.3763 C   0  0  0  0  0  0  0  0  0  0  0  0
    4.3686    5.7458   -9.3426 C   0  0  0  0  0  0  0  0  0  0  0  0
    4.0839    7.1030   -7.2733 C   0  0  0  0  0  0  0  0  0  0  0  0
    3.4310    6.3377   -6.2264 C   0  0  0  0  0  0  0  0  0  0  0  0
    2.1903    6.7148   -5.8781 C   0  0  0  0  0  0  0  0  0  0  0  0
    1.4478    5.9613   -4.8047 C   0  0  0  0  0  0  0  0  0  0  0  0
    0.8895    6.8136   -3.6768 C   0  0  0  0  0  0  0  0  0  0  0  0
    0.6021   -0.9455    0.5314 H   0  0  0  0  0  0  0  0  0  0  0  0
    0.6021    0.7987    0.6361 H   0  0  0  0  0  0  0  0  0  0  0  0
    2.0288   -0.0432    0.0802 H   0  0  0  0  0  0  0  0  0  0  0  0
   -1.3668   -0.6593   -2.2093 H   0  0  0  0  0  0  0  0  0  0  0  0
    0.0598   -1.5011   -2.7652 H   0  0  0  0  0  0  0  0  0  0  0  0
   -0.5733   -1.8159   -1.1674 H   0  0  0  0  0  0  0  0  0  0  0  0
    0.4241    1.1719   -3.1322 H   0  0  0  0  0  0  0  0  0  0  0  0
    1.1197    3.1457   -1.5902 H   0  0  0  0  0  0  0  0  0  0  0  0
    1.9132    1.9891   -0.5482 H   0  0  0  0  0  0  0  0  0  0  0  0
    3.5365    3.1194   -1.9948 H   0  0  0  0  0  0  0  0  0  0  0  0
    3.4563    1.4132   -2.3627 H   0  0  0  0  0  0  0  0  0  0  0  0
    2.4093    4.7625   -3.4750 H   0  0  0  0  0  0  0  0  0  0  0  0
    1.5356    4.2128   -4.8849 H   0  0  0  0  0  0  0  0  0  0  0  0
    0.9025    3.8981   -3.2870 H   0  0  0  0  0  0  0  0  0  0  0  0
    4.3124    3.5077   -4.2359 H   0  0  0  0  0  0  0  0  0  0  0  0
    1.4452    0.8690   -3.6114 H   0  0  0  0  0  0  0  0  0  0  0  0
    0.6712    2.4361   -6.0657 H   0  0  0  0  0  0  0  0  0  0  0  0
   -0.3990    1.8042   -4.8375 H   0  0  0  0  0  0  0  0  0  0  0  0
    1.1616    3.8023   -3.5968 H   0  0  0  0  0  0  0  0  0  0  0  0
   -0.5470    3.8640   -3.9575 H   0  0  0  0  0  0  0  0  0  0  0  0
   -0.4149    4.9932   -7.2440 H   0  0  0  0  0  0  0  0  0  0  0  0
   -0.7334    6.2432   -6.0654 H   0  0  0  0  0  0  0  0  0  0  0  0
    0.7579    6.2603   -6.9758 H   0  0  0  0  0  0  0  0  0  0  0  0
    2.1757   -0.2326   -6.0578 H   0  0  0  0  0  0  0  0  0  0  0  0
    3.8100   -0.5776   -4.5519 H   0  0  0  0  0  0  0  0  0  0  0  0
    4.2040    2.2616   -4.7659 H   0  0  0  0  0  0  0  0  0  0  0  0
    4.7549   -0.7761   -6.6048 H   0  0  0  0  0  0  0  0  0  0  0  0
    4.0744    0.7328   -7.1647 H   0  0  0  0  0  0  0  0  0  0  0  0
    6.7562    0.3881   -5.7257 H   0  0  0  0  0  0  0  0  0  0  0  0
    5.3017    0.6148   -8.6865 H   0  0  0  0  0  0  0  0  0  0  0  0
    6.8517    1.2494   -9.1842 H   0  0  0  0  0  0  0  0  0  0  0  0
    6.7696    0.0012   -7.9642 H   0  0  0  0  0  0  0  0  0  0  0  0
    6.6152    3.3172   -5.6962 H   0  0  0  0  0  0  0  0  0  0  0  0
    7.9601    3.0433   -6.7775 H   0  0  0  0  0  0  0  0  0  0  0  0
    7.2504    5.1048   -7.2792 H   0  0  0  0  0  0  0  0  0  0  0  0
    6.4337    4.0681   -8.5441 H   0  0  0  0  0  0  0  0  0  0  0  0
    5.4025    5.3452   -6.2240 H   0  0  0  0  0  0  0  0  0  0  0  0
    3.5889    3.0437   -9.1201 H   0  0  0  0  0  0  0  0  0  0  0  0
    5.0559    6.8104  -10.0778 H   0  0  0  0  0  0  0  0  0  0  0  0
    4.2997    6.5900   -7.7074 H   0  0  0  0  0  0  0  0  0  0  0  0
    5.4244    5.2715   -7.4850 H   0  0  0  0  0  0  0  0  0  0  0  0
    7.1570    6.7418   -7.9789 H   0  0  0  0  0  0  0  0  0  0  0  0
    6.5439    5.1609  -10.8829 H   0  0  0  0  0  0  0  0  0  0  0  0
    7.4869    6.6529   -8.6147 H   0  0  0  0  0  0  0  0  0  0  0  0
    7.7710    3.7699   -9.2878 H   0  0  0  0  0  0  0  0  0  0  0  0
    5.9685    4.9030   -7.3598 H   0  0  0  0  0  0  0  0  0  0  0  0
    5.7390    2.8292  -10.2720 H   0  0  0  0  0  0  0  0  0  0  0  0
    5.9453    2.2742   -7.4621 H   0  0  0  0  0  0  0  0  0  0  0  0
    6.9770    6.3085   -8.9196 H   0  0  0  0  0  0  0  0  0  0  0  0
    6.0772    7.8054   -8.9707 H   0  0  0  0  0  0  0  0  0  0  0  0
    6.7825    7.2610   -7.4676 H   0  0  0  0  0  0  0  0  0  0  0  0
    3.4696    5.2122   -9.1148 H   0  0  0  0  0  0  0  0  0  0  0  0
    4.1331    6.6042   -9.9364 H   0  0  0  0  0  0  0  0  0  0  0  0
    5.0340    5.1079   -9.8860 H   0  0  0  0  0  0  0  0  0  0  0  0
    3.8075    8.1312   -7.3800 H   0  0  0  0  0  0  0  0  0  0  0  0
    3.3186    5.3536   -6.6311 H   0  0  0  0  0  0  0  0  0  0  0  0
    4.0443    6.3988   -5.3518 H   0  0  0  0  0  0  0  0  0  0  0  0
    2.3397    7.6807   -5.4425 H   0  0  0  0  0  0  0  0  0  0  0  0
    1.5914    6.6622   -6.7632 H   0  0  0  0  0  0  0  0  0  0  0  0
   -0.0175    7.2814   -3.9985 H   0  0  0  0  0  0  0  0  0  0  0  0
    0.6897    6.1946   -2.8273 H   0  0  0  0  0  0  0  0  0  0  0  0
    1.6033    7.5650   -3.4106 H   0  0  0  0  0  0  0  0  0  0  0  0
  1  2  1  0  0  0  0
  1 45  1  0  0  0  0
  1 46  1  0  0  0  0
  1 47  1  0  0  0  0
  2  3  1  0  0  0  0
  2  4  2  0  0  0  0
  3 48  1  0  0  0  0
  3 49  1  0  0  0  0
  3 50  1  0  0  0  0
  4  5  1  0  0  0  0
  4 51  1  0  0  0  0
  5  6  1  0  0  0  0
  5 52  1  0  0  0  0
  5 53  1  0  0  0  0
  6  7  1  0  0  0  0
  6 54  1  0  0  0  0
  6 55  1  0  0  0  0
  7  8  1  0  0  0  0
  7  9  1  0  0  0  0
  7 10  1  0  0  0  0
  8 56  1  0  0  0  0
  8 57  1  0  0  0  0
  8 58  1  0  0  0  0
  9 59  1  0  0  0  0
 10 11  1  0  0  0  0
 10 15  1  0  0  0  0
 10 60  1  0  0  0  0
 11 12  1  0  0  0  0
 11 61  1  0  0  0  0
 11 62  1  0  0  0  0
 12 13  1  0  0  0  0
 12 63  1  0  0  0  0
 12 64  1  0  0  0  0
 13 14  1  0  0  0  0
 13 15  1  0  0  0  0
 13 43  1  0  0  0  0
 14 65  1  0  0  0  0
 14 66  1  0  0  0  0
 14 67  1  0  0  0  0
 15 16  1  0  0  0  0
 15 68  1  0  0  0  0
 16 17  1  0  0  0  0
 16 18  1  0  0  0  0
 16 69  1  0  0  0  0
 17 70  1  0  0  0  0
 18 19  1  0  0  0  0
 18 71  1  0  0  0  0
 18 72  1  0  0  0  0
 19 20  1  0  0  0  0
 19 43  1  0  0  0  0
 19 73  1  0  0  0  0
 20 21  1  0  0  0  0
 20 22  1  0  0  0  0
 20 40  1  0  0  0  0
 21 74  1  0  0  0  0
 21 75  1  0  0  0  0
 21 76  1  0  0  0  0
 22 23  1  0  0  0  0
 22 77  1  0  0  0  0
 22 78  1  0  0  0  0
 23 24  1  0  0  0  0
 23 79  1  0  0  0  0
 23 80  1  0  0  0  0
 24 25  1  0  0  0  0
 24 37  1  0  0  0  0
 24 81  1  0  0  0  0
 25 26  1  0  0  0  0
 26 27  1  0  0  0  0
 26 35  1  0  0  0  0
 26 82  1  0  0  0  0
 27 28  1  0  0  0  0
 28 29  1  0  0  0  0
 28 31  1  0  0  0  0
 28 83  1  0  0  0  0
 29 30  1  0  0  0  0
 29 84  1  0  0  0  0
 29 85  1  0  0  0  0
 30 86  1  0  0  0  0
 31 32  1  0  0  0  0
 31 33  1  0  0  0  0
 31 87  1  0  0  0  0
 32 88  1  0  0  0  0
 33 34  1  0  0  0  0
 33 35  1  0  0  0  0
 33 89  1  0  0  0  0
 34 90  1  0  0  0  0
 35 36  1  0  0  0  0
 35 91  1  0  0  0  0
 36 92  1  0  0  0  0
 37 38  1  0  0  0  0
 37 39  1  0  0  0  0
 37 40  1  0  0  0  0
 38 93  1  0  0  0  0
 38 94  1  0  0  0  0
 38 95  1  0  0  0  0
 39 96  1  0  0  0  0
 39 97  1  0  0  0  0
 39 98  1  0  0  0  0
 40 41  1  0  0  0  0
 40 99  1  0  0  0  0
 41 42  1  0  0  0  0
 41100  1  0  0  0  0
 41101  1  0  0  0  0
 42 43  1  0  0  0  0
 42102  1  0  0  0  0
 42103  1  0  0  0  0
 43 44  1  0  0  0  0
 44104  1  0  0  0  0
 44105  1  0  0  0  0
 44106  1  0  0  0  0
M  END
