REMARK  Name = 
REMARK  42 active torsions:
REMARK  status: ('A' for Active; 'I' for Inactive)
REMARK    1  A    between atoms: C_1  and  C_2
REMARK    2  A    between atoms: C_2  and  C_3
REMARK    3  A    between atoms: C_4  and  C_5
REMARK    4  A    between atoms: C_5  and  C_6
REMARK    5  A    between atoms: C_6  and  C_7
REMARK    6  A    between atoms: C_7  and  C_8
REMARK    7  A    between atoms: C_7  and  O_9
REMARK    8  A    between atoms: C_7  and  C_30
REMARK    9  A    between atoms: O_9  and  C_10
REMARK   10  A    between atoms: C_12  and  C_13
REMARK   11  A    between atoms: C_13  and  O_14
REMARK   12  A    between atoms: O_14  and  C_15
REMARK   13  A    between atoms: C_17  and  C_18
REMARK   14  A    between atoms: C_18  and  O_19
REMARK   15  A    between atoms: C_20  and  O_21
REMARK   16  A    between atoms: C_22  and  O_23
REMARK   17  A    between atoms: C_24  and  O_25
REMARK   18  A    between atoms: C_26  and  O_27
REMARK   19  A    between atoms: C_28  and  O_29
REMARK   20  A    between atoms: C_33  and  C_34
REMARK   21  A    between atoms: C_36  and  O_37
REMARK   22  A    between atoms: C_40  and  C_41
REMARK   23  A    between atoms: C_44  and  O_45
REMARK   24  A    between atoms: O_45  and  C_46
REMARK   25  A    between atoms: C_48  and  C_49
REMARK   26  A    between atoms: C_49  and  O_50
REMARK   27  A    between atoms: C_51  and  O_52
REMARK   28  A    between atoms: C_53  and  O_54
REMARK   29  A    between atoms: C_55  and  O_56
REMARK   30  A    between atoms: O_56  and  C_57
REMARK   31  A    between atoms: C_59  and  C_60
REMARK   32  A    between atoms: C_60  and  O_61
REMARK   33  A    between atoms: O_61  and  C_62
REMARK   34  A    between atoms: C_62  and  C_64
REMARK   35  A    between atoms: C_64  and  C_65
REMARK   36  A    between atoms: C_65  and  O_67
REMARK   37  A    between atoms: C_68  and  O_69
REMARK   38  A    between atoms: C_70  and  O_71
REMARK   39  A    between atoms: C_72  and  O_73
REMARK   40  A    between atoms: C_74  and  C_75
REMARK   41  A    between atoms: C_74  and  C_76
REMARK   42  A    between atoms: C_80  and  C_81
REMARK                            x       y       z     vdW  Elec       q    Type
REMARK                         _______ _______ _______ _____ _____    ______ ____
ROOT
ATOM      1  C   UNL     1       1.783  -3.354  -3.280  0.00  0.00    +0.000 C 
ATOM      2  C   UNL     1       0.516  -2.643  -2.832  0.00  0.00    +0.000 C 
ATOM      3  C   UNL     1      -0.244  -2.145  -4.050  0.00  0.00    +0.000 C 
ATOM      4  C   UNL     1      -0.611  -3.325  -4.936  0.00  0.00    +0.000 C 
ATOM      5  C   UNL     1      -1.331  -2.748  -6.144  0.00  0.00    +0.000 C 
ATOM      6  C   UNL     1       0.524  -4.124  -5.579  0.00  0.00    +0.000 C 
ATOM      7  C   UNL     1       1.323  -4.723  -4.556  0.00  0.00    +0.000 C 
ATOM      8  C   UNL     1       0.612  -5.640  -3.723  0.00  0.00    +0.000 C 
ATOM      9  C   UNL     1      -0.521  -4.902  -3.005  0.00  0.00    +0.000 C 
ATOM     10  C   UNL     1       0.062  -3.827  -2.101  0.00  0.00    +0.000 C 
ATOM     11  C   UNL     1       0.981  -4.366  -1.017  0.00  0.00    +0.000 C 
ATOM     12  C   UNL     1       0.693  -2.922  -3.161  0.00  0.00    +0.000 C 
ATOM     13  C   UNL     1      -0.322  -2.447  -4.048  0.00  0.00    +0.000 C 
ATOM     14  C   UNL     1      -1.335  -1.667  -3.409  0.00  0.00    +0.000 C 
ATOM     15  C   UNL     1      -2.049  -2.522  -2.359  0.00  0.00    +0.000 C 
ATOM     16  C   UNL     1      -2.740  -3.694  -3.036  0.00  0.00    +0.000 C 
ATOM     17  C   UNL     1      -3.086  -1.678  -1.636  0.00  0.00    +0.000 C 
ATOM     18  C   UNL     1      -1.020  -3.043  -1.351  0.00  0.00    +0.000 C 
ATOM     19  C   UNL     1      -1.704  -3.950  -0.341  0.00  0.00    +0.000 C 
ATOM     20  C   UNL     1      -2.531  -3.462  -3.346  0.00  0.00    +0.000 C 
ATOM     21  C   UNL     1      -1.440  -4.257  -4.046  0.00  0.00    +0.000 C 
ATOM     22  C   UNL     1      -2.081  -5.339  -4.900  0.00  0.00    +0.000 C 
ENDROOT
BRANCH   7  23
ATOM     23  O   UNL     1       1.772  -3.669  -3.717  0.00  0.00    +0.000 OA
ATOM     24  H   UNL     1       0.983  -3.212  -3.306  0.00  0.00    +0.000 HD
ENDBRANCH   7  23
BRANCH   1  25
ATOM     25  C   UNL     1       2.656  -2.386  -4.062  0.00  0.00    +0.000 C 
ATOM     26  C   UNL     1       1.896  -1.888  -5.280  0.00  0.00    +0.000 C 
BRANCH  25  27
ATOM     27  C   UNL     1       3.024  -1.207  -3.176  0.00  0.00    +0.000 C 
BRANCH  27  28
ATOM     28  C   UNL     1       1.757  -0.496  -2.728  0.00  0.00    +0.000 C 
BRANCH  28  32
ATOM     29  C   UNL     1       1.061   0.079   0.008  0.00  0.00    +0.000 C 
ATOM     30  C   UNL     1       0.554  -1.192  -0.654  0.00  0.00    +0.000 C 
ATOM     31  C   UNL     1      -0.319  -2.160   0.127  0.00  0.00    +0.000 C 
ATOM     32  C   UNL     1       0.883  -1.464  -1.946  0.00  0.00    +0.000 C 
ENDBRANCH  28  32
ENDBRANCH  27  28
ENDBRANCH  25  27
BRANCH  25  33
ATOM     33  O   UNL     1       3.840  -3.050  -4.481  0.00  0.00    +0.000 OA
BRANCH  33  34
ATOM     34  C   UNL     1       4.656  -2.146  -5.211  0.00  0.00    +0.000 C 
ATOM     35  O   UNL     1       4.180  -1.542  -6.534  0.00  0.00    +0.000 OA
ATOM     36  C   UNL     1       3.109  -0.630  -6.283  0.00  0.00    +0.000 C 
ATOM     37  C   UNL     1       3.466   0.472  -5.446  0.00  0.00    +0.000 C 
ATOM     38  C   UNL     1       3.914  -0.050  -4.079  0.00  0.00    +0.000 C 
ATOM     39  C   UNL     1       5.087  -1.016  -4.270  0.00  0.00    +0.000 C 
BRANCH  38  40
ATOM     40  O   UNL     1       2.836  -0.727  -3.450  0.00  0.00    +0.000 OA
ATOM     41  H   UNL     1       2.545  -1.495  -4.020  0.00  0.00    +0.000 HD
ENDBRANCH  38  40
BRANCH  39  42
ATOM     42  O   UNL     1       5.471  -1.558  -3.015  0.00  0.00    +0.000 OA
ATOM     43  H   UNL     1       4.697  -2.049  -2.613  0.00  0.00    +0.000 HD
ENDBRANCH  39  42
BRANCH  37  44
ATOM     44  O   UNL     1       2.343   1.326  -5.283  0.00  0.00    +0.000 OA
ATOM     45  H   UNL     1       1.595   0.815  -4.859  0.00  0.00    +0.000 HD
ENDBRANCH  37  44
BRANCH  36  46
ATOM     46  C   UNL     1       2.033  -1.410  -5.545  0.00  0.00    +0.000 C 
BRANCH  46  47
ATOM     47  O   UNL     1       0.924  -0.560  -5.289  0.00  0.00    +0.000 OA
BRANCH  47  48
ATOM     48  C   UNL     1       1.343   0.538  -4.493  0.00  0.00    +0.000 C 
ATOM     49  O   UNL     1       1.365   1.842  -5.327  0.00  0.00    +0.000 OA
ATOM     50  C   UNL     1       1.225   2.943  -4.242  0.00  0.00    +0.000 C 
ATOM     51  C   UNL     1       0.234   2.344  -3.221  0.00  0.00    +0.000 C 
ATOM     52  C   UNL     1       0.309   0.815  -3.381  0.00  0.00    +0.000 C 
BRANCH  52  53
ATOM     53  O   UNL     1      -0.960   0.272  -3.715  0.00  0.00    +0.000 OA
ATOM     54  H   UNL     1      -1.281   0.677  -4.571  0.00  0.00    +0.000 HD
ENDBRANCH  52  53
BRANCH  51  55
ATOM     55  O   UNL     1      -1.085   2.818  -3.448  0.00  0.00    +0.000 OA
ATOM     56  H   UNL     1      -1.374   2.570  -4.373  0.00  0.00    +0.000 HD
ENDBRANCH  51  55
BRANCH  50  57
ATOM     57  C   UNL     1       0.742   4.266  -4.814  0.00  0.00    +0.000 C 
BRANCH  57  58
ATOM     58  O   UNL     1       0.608   5.214  -3.765  0.00  0.00    +0.000 OA
ATOM     59  H   UNL     1      -0.055   4.878  -3.096  0.00  0.00    +0.000 HD
ENDBRANCH  57  58
ENDBRANCH  50  57
ENDBRANCH  47  48
ENDBRANCH  46  47
ENDBRANCH  36  46
ENDBRANCH  33  34
ENDBRANCH  25  33
ENDBRANCH   1  25
BRANCH  14  60
ATOM     60  O   UNL     1      -2.274  -1.225  -4.378  0.00  0.00    +0.000 OA
BRANCH  60  61
ATOM     61  C   UNL     1      -2.869  -2.350  -5.008  0.00  0.00    +0.000 C 
ATOM     62  O   UNL     1      -2.197  -3.367  -5.934  0.00  0.00    +0.000 OA
ATOM     63  C   UNL     1      -1.248  -4.134  -5.189  0.00  0.00    +0.000 C 
ATOM     64  C   UNL     1      -1.819  -4.886  -4.117  0.00  0.00    +0.000 C 
ATOM     65  C   UNL     1      -2.476  -3.931  -3.118  0.00  0.00    +0.000 C 
ATOM     66  C   UNL     1      -3.534  -3.093  -3.844  0.00  0.00    +0.000 C 
BRANCH  65  67
ATOM     67  O   UNL     1      -1.492  -3.075  -2.556  0.00  0.00    +0.000 OA
ATOM     68  H   UNL     1      -1.055  -2.547  -3.284  0.00  0.00    +0.000 HD
ENDBRANCH  65  67
BRANCH  64  69
ATOM     69  O   UNL     1      -0.800  -5.628  -3.463  0.00  0.00    +0.000 OA
ATOM     70  H   UNL     1      -0.111  -5.000  -3.100  0.00  0.00    +0.000 HD
ENDBRANCH  64  69
BRANCH  66  71
ATOM     71  O   UNL     1      -4.106  -2.158  -2.942  0.00  0.00    +0.000 OA
BRANCH  71  72
ATOM     72  C   UNL     1      -3.090  -1.303  -2.439  0.00  0.00    +0.000 C 
ATOM     73  O   UNL     1      -2.179  -2.456  -2.013  0.00  0.00    +0.000 OA
ATOM     74  C   UNL     1      -1.973  -3.334  -3.121  0.00  0.00    +0.000 C 
ATOM     75  C   UNL     1      -1.339  -2.718  -4.244  0.00  0.00    +0.000 C 
ATOM     76  C   UNL     1      -2.217  -1.575  -4.760  0.00  0.00    +0.000 C 
ATOM     77  C   UNL     1      -2.455  -0.573  -3.627  0.00  0.00    +0.000 C 
BRANCH  77  78
ATOM     78  O   UNL     1      -3.321   0.460  -4.074  0.00  0.00    +0.000 OA
ATOM     79  H   UNL     1      -4.195   0.063  -4.356  0.00  0.00    +0.000 HD
ENDBRANCH  77  78
BRANCH  76  80
ATOM     80  O   UNL     1      -3.461  -2.093  -5.208  0.00  0.00    +0.000 OA
ATOM     81  H   UNL     1      -3.924  -2.552  -4.450  0.00  0.00    +0.000 HD
ENDBRANCH  76  80
BRANCH  75  82
ATOM     82  O   UNL     1      -1.159  -3.679  -5.273  0.00  0.00    +0.000 OA
ATOM     83  H   UNL     1      -2.049  -4.042  -5.550  0.00  0.00    +0.000 HD
ENDBRANCH  75  82
BRANCH  74  84
ATOM     84  C   UNL     1      -3.349  -3.784  -3.586  0.00  0.00    +0.000 C 
BRANCH  84  85
ATOM     85  O   UNL     1      -3.209  -4.685  -4.674  0.00  0.00    +0.000 OA
BRANCH  85  86
ATOM     86  C   UNL     1      -2.564  -4.264  -5.867  0.00  0.00    +0.000 C 
ATOM     87  O   UNL     1      -2.112  -3.080  -5.961  0.00  0.00    +0.000 OA
BRANCH  86  88
ATOM     88  C   UNL     1      -2.416  -5.229  -7.032  0.00  0.00    +0.000 C 
BRANCH  88  89
ATOM     89  C   UNL     1      -1.611  -6.440  -6.587  0.00  0.00    +0.000 C 
ATOM     90  O   UNL     1      -2.125  -7.601  -6.644  0.00  0.00    +0.000 OA
BRANCH  89  91
ATOM     91  O   UNL     1      -0.284  -6.274  -6.108  0.00  0.00    +0.000 OA
ATOM     92  H   UNL     1       0.245  -7.070  -5.815  0.00  0.00    +0.000 HD
ENDBRANCH  89  91
ENDBRANCH  88  89
ENDBRANCH  86  88
ENDBRANCH  85  86
ENDBRANCH  84  85
ENDBRANCH  74  84
ENDBRANCH  71  72
ENDBRANCH  66  71
BRANCH  63  93
ATOM     93  C   UNL     1      -0.279  -3.144  -4.563  0.00  0.00    +0.000 C 
BRANCH  93  94
ATOM     94  O   UNL     1       0.710  -3.850  -3.828  0.00  0.00    +0.000 OA
ATOM     95  H   UNL     1       0.271  -4.387  -3.108  0.00  0.00    +0.000 HD
ENDBRANCH  93  94
ENDBRANCH  63  93
ENDBRANCH  60  61
ENDBRANCH  14  60
TORSDOF 34
