REMARK  Name = 
REMARK  21 active torsions:
REMARK  status: ('A' for Active; 'I' for Inactive)
REMARK    1  A    between atoms: C_1  and  C_2
REMARK    2  A    between atoms: C_2  and  C_3
REMARK    3  A    between atoms: C_4  and  C_5
REMARK    4  A    between atoms: C_5  and  C_6
REMARK    5  A    between atoms: C_6  and  C_7
REMARK    6  A    between atoms: C_7  and  C_8
REMARK    7  A    between atoms: C_7  and  O_9
REMARK    8  A    between atoms: C_7  and  C_10
REMARK    9  A    between atoms: C_13  and  C_14
REMARK   10  A    between atoms: C_16  and  O_17
REMARK   11  A    between atoms: C_20  and  C_21
REMARK   12  A    between atoms: C_24  and  O_25
REMARK   13  A    between atoms: O_25  and  C_26
REMARK   14  A    between atoms: C_28  and  C_29
REMARK   15  A    between atoms: C_29  and  O_30
REMARK   16  A    between atoms: C_31  and  O_32
REMARK   17  A    between atoms: C_33  and  O_34
REMARK   18  A    between atoms: C_35  and  O_36
REMARK   19  A    between atoms: C_37  and  C_38
REMARK   20  A    between atoms: C_37  and  C_39
REMARK   21  A    between atoms: C_43  and  C_44
REMARK                            x       y       z     vdW  Elec       q    Type
REMARK                         _______ _______ _______ _____ _____    ______ ____
ROOT
ATOM      1  C   UNL     1       1.665   4.713  -0.390  0.00  0.00    +0.000 C 
ATOM      2  C   UNL     1       2.087   5.916  -1.236  0.00  0.00    +0.000 C 
ATOM      3  C   UNL     1       2.712   6.981  -0.333  0.00  0.00    +0.000 C 
ATOM      4  C   UNL     1       4.180   7.177  -0.715  0.00  0.00    +0.000 C 
ATOM      5  C   UNL     1       5.108   7.933  -1.652  0.00  0.00    +0.000 C 
ATOM      6  C   UNL     1       1.829   3.431  -1.208  0.00  0.00    +0.000 C 
ATOM      7  C   UNL     1       2.017   2.242  -0.263  0.00  0.00    +0.000 C 
ATOM      8  C   UNL     1       2.992   1.242  -0.887  0.00  0.00    +0.000 C 
ATOM      9  C   UNL     1       3.929   0.700   0.193  0.00  0.00    +0.000 C 
ATOM     10  C   UNL     1       5.380   0.834  -0.274  0.00  0.00    +0.000 C 
ATOM     11  C   UNL     1       5.234  -0.143  -1.429  0.00  0.00    +0.000 C 
ATOM     12  C   UNL     1       6.267   1.196   0.919  0.00  0.00    +0.000 C 
ATOM     13  C   UNL     1       7.423   2.041   0.446  0.00  0.00    +0.000 C 
ATOM     14  C   UNL     1       7.265   3.365   0.287  0.00  0.00    +0.000 C 
ATOM     15  C   UNL     1       8.423   4.119  -0.157  0.00  0.00    +0.000 C 
ATOM     16  C   UNL     1       9.679   3.537   0.471  0.00  0.00    +0.000 C 
ATOM     17  C   UNL     1       8.531   4.037  -1.671  0.00  0.00    +0.000 C 
ATOM     18  C   UNL     1       8.270   5.581   0.266  0.00  0.00    +0.000 C 
ATOM     19  C   UNL     1       6.870   5.861   0.532  0.00  0.00    +0.000 C 
ATOM     20  C   UNL     1       6.442   7.112   0.296  0.00  0.00    +0.000 C 
ATOM     21  C   UNL     1       5.000   7.473   0.542  0.00  0.00    +0.000 C 
ATOM     22  C   UNL     1       4.773   8.687   1.427  0.00  0.00    +0.000 C 
ENDROOT
BRANCH   1  23
ATOM     23  C   UNL     1       2.539   4.636   0.852  0.00  0.00    +0.000 C 
ATOM     24  C   UNL     1       1.779   5.199   2.042  0.00  0.00    +0.000 C 
BRANCH  23  25
ATOM     25  O   UNL     1       3.723   5.393   0.645  0.00  0.00    +0.000 OA
ATOM     26  H   UNL     1       4.297   5.343   1.461  0.00  0.00    +0.000 HD
ENDBRANCH  23  25
BRANCH  23  27
ATOM     27  C   UNL     1       2.906   3.187   1.124  0.00  0.00    +0.000 C 
BRANCH  27  28
ATOM     28  C   UNL     1       1.640   2.376   1.345  0.00  0.00    +0.000 C 
BRANCH  28  32
ATOM     29  C   UNL     1       0.944  -0.030  -0.077  0.00  0.00    +0.000 C 
ATOM     30  C   UNL     1       0.437   1.316  -0.568  0.00  0.00    +0.000 C 
ATOM     31  C   UNL     1      -0.437   1.393  -1.809  0.00  0.00    +0.000 C 
ATOM     32  C   UNL     1       0.766   2.453   0.104  0.00  0.00    +0.000 C 
ENDBRANCH  28  32
ENDBRANCH  27  28
ENDBRANCH  23  27
ENDBRANCH   1  23
BRANCH   7  33
ATOM     33  O   UNL     1       2.540   2.701   0.975  0.00  0.00    +0.000 OA
ATOM     34  H   UNL     1       3.421   3.147   0.821  0.00  0.00    +0.000 HD
ENDBRANCH   7  33
BRANCH  14  35
ATOM     35  O   UNL     1       6.315   3.499  -0.759  0.00  0.00    +0.000 OA
BRANCH  35  36
ATOM     36  C   UNL     1       6.838   2.927  -1.950  0.00  0.00    +0.000 C 
ATOM     37  O   UNL     1       8.123   3.670  -2.321  0.00  0.00    +0.000 OA
ATOM     38  C   UNL     1       9.105   3.458  -1.305  0.00  0.00    +0.000 C 
ATOM     39  C   UNL     1       9.473   2.089  -1.125  0.00  0.00    +0.000 C 
ATOM     40  C   UNL     1       8.242   1.282  -0.706  0.00  0.00    +0.000 C 
ATOM     41  C   UNL     1       7.152   1.438  -1.771  0.00  0.00    +0.000 C 
BRANCH  39  42
ATOM     42  O   UNL     1      10.468   1.994  -0.117  0.00  0.00    +0.000 OA
ATOM     43  H   UNL     1      10.108   2.357   0.742  0.00  0.00    +0.000 HD
ENDBRANCH  39  42
BRANCH  40  44
ATOM     44  O   UNL     1       7.761   1.758   0.543  0.00  0.00    +0.000 OA
ATOM     45  H   UNL     1       7.514   2.723   0.459  0.00  0.00    +0.000 HD
ENDBRANCH  40  44
BRANCH  41  46
ATOM     46  O   UNL     1       5.981   0.747  -1.363  0.00  0.00    +0.000 OA
ATOM     47  H   UNL     1       5.655   1.124  -0.496  0.00  0.00    +0.000 HD
ENDBRANCH  41  46
BRANCH  38  48
ATOM     48  C   UNL     1       8.489   3.922   0.005  0.00  0.00    +0.000 C 
BRANCH  48  49
ATOM     49  O   UNL     1       9.432   3.761   1.055  0.00  0.00    +0.000 OA
ATOM     50  H   UNL     1       9.687   2.797   1.129  0.00  0.00    +0.000 HD
ENDBRANCH  48  49
ENDBRANCH  38  48
ENDBRANCH  35  36
ENDBRANCH  14  35
TORSDOF 13
