
 OpenBabel03132512093D

173180  0  0  0  0  0  0  0  0999 V2000
    1.0611    0.0788    0.0076 C   0  0  0  0  0  0  0  0  0  0  0  0
    0.5544   -1.1922   -0.6544 C   0  0  0  0  0  0  0  0  0  0  0  0
   -0.3194   -2.1597    0.1271 C   0  0  0  0  0  0  0  0  0  0  0  0
    0.8831   -1.4639   -1.9462 C   0  0  0  0  0  0  0  0  0  0  0  0
    1.7570   -0.4963   -2.7277 C   0  0  0  0  0  0  0  0  0  0  0  0
    3.0236   -1.2068   -3.1763 C   0  0  0  0  0  0  0  0  0  0  0  0
    2.6564   -2.3863   -4.0619 C   0  0  0  0  0  0  0  0  0  0  0  0
    1.8964   -1.8880   -5.2802 C   0  0  0  0  0  0  0  0  0  0  0  0
    3.8398   -3.0500   -4.4810 O   0  0  0  0  0  0  0  0  0  0  0  0
    4.6561   -2.1461   -5.2110 C   0  0  0  0  0  0  0  0  0  0  0  0
    4.1796   -1.5425   -6.5342 O   0  0  0  0  0  0  0  0  0  0  0  0
    3.1087   -0.6300   -6.2826 C   0  0  0  0  0  0  0  0  0  0  0  0
    2.0325   -1.4097   -5.5448 C   0  0  0  0  0  0  0  0  0  0  0  0
    0.9237   -0.5601   -5.2892 O   0  0  0  0  0  0  0  0  0  0  0  0
    1.3427    0.5382   -4.4927 C   0  0  0  0  0  0  0  0  0  0  0  0
    1.3652    1.8422   -5.3274 O   0  0  0  0  0  0  0  0  0  0  0  0
    1.2247    2.9426   -4.2420 C   0  0  0  0  0  0  0  0  0  0  0  0
    0.7424    4.2658   -4.8138 C   0  0  0  0  0  0  0  0  0  0  0  0
    0.6078    5.2136   -3.7650 O   0  0  0  0  0  0  0  0  0  0  0  0
    0.2342    2.3439   -3.2213 C   0  0  0  0  0  0  0  0  0  0  0  0
   -1.0848    2.8185   -3.4483 O   0  0  0  0  0  0  0  0  0  0  0  0
    0.3095    0.8152   -3.3811 C   0  0  0  0  0  0  0  0  0  0  0  0
   -0.9595    0.2723   -3.7149 O   0  0  0  0  0  0  0  0  0  0  0  0
    3.4660    0.4719   -5.4462 C   0  0  0  0  0  0  0  0  0  0  0  0
    2.3434    1.3259   -5.2826 O   0  0  0  0  0  0  0  0  0  0  0  0
    3.9137   -0.0503   -4.0790 C   0  0  0  0  0  0  0  0  0  0  0  0
    2.8355   -0.7267   -3.4495 O   0  0  0  0  0  0  0  0  0  0  0  0
    5.0871   -1.0165   -4.2698 C   0  0  0  0  0  0  0  0  0  0  0  0
    5.4708   -1.5584   -3.0146 O   0  0  0  0  0  0  0  0  0  0  0  0
    1.7826   -3.3538   -3.2804 C   0  0  0  0  0  0  0  0  0  0  0  0
    0.5159   -2.6434   -2.8318 C   0  0  0  0  0  0  0  0  0  0  0  0
   -0.2441   -2.1451   -4.0502 C   0  0  0  0  0  0  0  0  0  0  0  0
   -0.6113   -3.3246   -4.9357 C   0  0  0  0  0  0  0  0  0  0  0  0
   -1.3312   -2.7479   -6.1439 C   0  0  0  0  0  0  0  0  0  0  0  0
    0.5244   -4.1238   -5.5790 C   0  0  0  0  0  0  0  0  0  0  0  0
    1.3231   -4.7230   -4.5565 C   0  0  0  0  0  0  0  0  0  0  0  0
    1.7718   -3.6694   -3.7169 O   0  0  0  0  0  0  0  0  0  0  0  0
    0.6115   -5.6397   -3.7230 C   0  0  0  0  0  0  0  0  0  0  0  0
   -0.5207   -4.9019   -3.0046 C   0  0  0  0  0  0  0  0  0  0  0  0
    0.0617   -3.8272   -2.1012 C   0  0  0  0  0  0  0  0  0  0  0  0
    0.9808   -4.3660   -1.0171 C   0  0  0  0  0  0  0  0  0  0  0  0
    0.6934   -2.9220   -3.1613 C   0  0  0  0  0  0  0  0  0  0  0  0
   -0.3221   -2.4466   -4.0475 C   0  0  0  0  0  0  0  0  0  0  0  0
   -1.3351   -1.6673   -3.4088 C   0  0  0  0  0  0  0  0  0  0  0  0
   -2.2742   -1.2254   -4.3779 O   0  0  0  0  0  0  0  0  0  0  0  0
   -2.8692   -2.3503   -5.0079 C   0  0  0  0  0  0  0  0  0  0  0  0
   -2.1967   -3.3668   -5.9336 O   0  0  0  0  0  0  0  0  0  0  0  0
   -1.2479   -4.1336   -5.1890 C   0  0  0  0  0  0  0  0  0  0  0  0
   -0.2790   -3.1440   -4.5628 C   0  0  0  0  0  0  0  0  0  0  0  0
    0.7101   -3.8501   -3.8284 O   0  0  0  0  0  0  0  0  0  0  0  0
   -1.8190   -4.8859   -4.1170 C   0  0  0  0  0  0  0  0  0  0  0  0
   -0.7997   -5.6276   -3.4633 O   0  0  0  0  0  0  0  0  0  0  0  0
   -2.4763   -3.9309   -3.1178 C   0  0  0  0  0  0  0  0  0  0  0  0
   -1.4919   -3.0753   -2.5563 O   0  0  0  0  0  0  0  0  0  0  0  0
   -3.5335   -3.0934   -3.8441 C   0  0  0  0  0  0  0  0  0  0  0  0
   -4.1062   -2.1577   -2.9425 O   0  0  0  0  0  0  0  0  0  0  0  0
   -3.0903   -1.3029   -2.4388 C   0  0  0  0  0  0  0  0  0  0  0  0
   -2.1787   -2.4560   -2.0127 O   0  0  0  0  0  0  0  0  0  0  0  0
   -1.9728   -3.3344   -3.1212 C   0  0  0  0  0  0  0  0  0  0  0  0
   -3.3485   -3.7837   -3.5861 C   0  0  0  0  0  0  0  0  0  0  0  0
   -3.2092   -4.6854   -4.6742 O   0  0  0  0  0  0  0  0  0  0  0  0
   -2.5645   -4.2643   -5.8673 C   0  0  0  0  0  0  0  0  0  0  0  0
   -2.1121   -3.0804   -5.9612 O   0  0  0  0  0  0  0  0  0  0  0  0
   -2.4155   -5.2295   -7.0320 C   0  0  0  0  0  0  0  0  0  0  0  0
   -1.6107   -6.4399   -6.5872 C   0  0  0  0  0  0  0  0  0  0  0  0
   -2.1247   -7.6007   -6.6445 O   0  0  0  0  0  0  0  0  0  0  0  0
   -0.2845   -6.2735   -6.1077 O   0  0  0  0  0  0  0  0  0  0  0  0
   -1.3393   -2.7179   -4.2437 C   0  0  0  0  0  0  0  0  0  0  0  0
   -1.1594   -3.6794   -5.2731 O   0  0  0  0  0  0  0  0  0  0  0  0
   -2.2170   -1.5753   -4.7601 C   0  0  0  0  0  0  0  0  0  0  0  0
   -3.4608   -2.0934   -5.2084 O   0  0  0  0  0  0  0  0  0  0  0  0
   -2.4548   -0.5727   -3.6265 C   0  0  0  0  0  0  0  0  0  0  0  0
   -3.3210    0.4598   -4.0737 O   0  0  0  0  0  0  0  0  0  0  0  0
   -2.0489   -2.5217   -2.3586 C   0  0  0  0  0  0  0  0  0  0  0  0
   -2.7397   -3.6938   -3.0364 C   0  0  0  0  0  0  0  0  0  0  0  0
   -3.0864   -1.6780   -1.6361 C   0  0  0  0  0  0  0  0  0  0  0  0
   -1.0197   -3.0428   -1.3507 C   0  0  0  0  0  0  0  0  0  0  0  0
   -1.7040   -3.9498   -0.3410 C   0  0  0  0  0  0  0  0  0  0  0  0
   -2.5308   -3.4624   -3.3460 C   0  0  0  0  0  0  0  0  0  0  0  0
   -1.4404   -4.2569   -4.0462 C   0  0  0  0  0  0  0  0  0  0  0  0
   -2.0810   -5.3391   -4.8999 C   0  0  0  0  0  0  0  0  0  0  0  0
    0.7044    0.1226    1.0154 H   0  0  0  0  0  0  0  0  0  0  0  0
    0.7045    0.9297   -0.5343 H   0  0  0  0  0  0  0  0  0  0  0  0
    2.1311    0.0788    0.0076 H   0  0  0  0  0  0  0  0  0  0  0  0
   -1.2645   -2.2630   -0.3639 H   0  0  0  0  0  0  0  0  0  0  0  0
    0.1621   -3.1139    0.1780 H   0  0  0  0  0  0  0  0  0  0  0  0
   -0.4710   -1.7834    1.1172 H   0  0  0  0  0  0  0  0  0  0  0  0
    0.5264   -2.3586   -2.4122 H   0  0  0  0  0  0  0  0  0  0  0  0
    1.2220   -0.1455   -3.5854 H   0  0  0  0  0  0  0  0  0  0  0  0
    2.0155    0.3340   -2.1043 H   0  0  0  0  0  0  0  0  0  0  0  0
    3.6388   -0.5257   -3.7264 H   0  0  0  0  0  0  0  0  0  0  0  0
    3.5586   -1.5576   -2.3186 H   0  0  0  0  0  0  0  0  0  0  0  0
    2.5116   -1.2069   -5.8303 H   0  0  0  0  0  0  0  0  0  0  0  0
    1.6379   -2.7183   -5.9036 H   0  0  0  0  0  0  0  0  0  0  0  0
    1.0048   -1.3879   -4.9644 H   0  0  0  0  0  0  0  0  0  0  0  0
    5.4407   -2.7883   -5.5531 H   0  0  0  0  0  0  0  0  0  0  0  0
    2.7690   -0.2436   -7.2207 H   0  0  0  0  0  0  0  0  0  0  0  0
    1.7168   -2.2373   -6.1450 H   0  0  0  0  0  0  0  0  0  0  0  0
    2.4261   -1.7710   -4.6177 H   0  0  0  0  0  0  0  0  0  0  0  0
    2.3084    0.2860   -4.1070 H   0  0  0  0  0  0  0  0  0  0  0  0
    2.1692    3.1436   -3.7811 H   0  0  0  0  0  0  0  0  0  0  0  0
    1.4518    4.6246   -5.5299 H   0  0  0  0  0  0  0  0  0  0  0  0
   -0.2051    4.1242   -5.2903 H   0  0  0  0  0  0  0  0  0  0  0  0
   -0.0552    4.8783   -3.0957 H   0  0  0  0  0  0  0  0  0  0  0  0
    0.5129    2.6255   -2.2274 H   0  0  0  0  0  0  0  0  0  0  0  0
   -1.3741    2.5696   -4.3726 H   0  0  0  0  0  0  0  0  0  0  0  0
    0.6241    0.3632   -2.4637 H   0  0  0  0  0  0  0  0  0  0  0  0
   -1.2806    0.6773   -4.5710 H   0  0  0  0  0  0  0  0  0  0  0  0
    4.2667    1.0185   -5.8990 H   0  0  0  0  0  0  0  0  0  0  0  0
    1.5949    0.8153   -4.8595 H   0  0  0  0  0  0  0  0  0  0  0  0
    4.2218    0.7704   -3.4655 H   0  0  0  0  0  0  0  0  0  0  0  0
    2.5449   -1.4946   -4.0203 H   0  0  0  0  0  0  0  0  0  0  0  0
    5.9175   -0.4926   -4.6951 H   0  0  0  0  0  0  0  0  0  0  0  0
    4.6975   -2.0493   -2.6131 H   0  0  0  0  0  0  0  0  0  0  0  0
    1.5241   -4.1842   -3.9038 H   0  0  0  0  0  0  0  0  0  0  0  0
   -0.0993   -3.3245   -2.2817 H   0  0  0  0  0  0  0  0  0  0  0  0
    0.7744   -1.8131   -2.2084 H   0  0  0  0  0  0  0  0  0  0  0  0
   -1.1358   -1.6450   -3.7344 H   0  0  0  0  0  0  0  0  0  0  0  0
    0.3710   -1.4640   -4.6003 H   0  0  0  0  0  0  0  0  0  0  0  0
   -2.2067   -2.2244   -5.8210 H   0  0  0  0  0  0  0  0  0  0  0  0
   -0.6803   -2.0716   -6.6575 H   0  0  0  0  0  0  0  0  0  0  0  0
   -1.6132   -3.5418   -6.8035 H   0  0  0  0  0  0  0  0  0  0  0  0
    1.1318   -3.4693   -6.1685 H   0  0  0  0  0  0  0  0  0  0  0  0
    2.1284   -5.2498   -5.0244 H   0  0  0  0  0  0  0  0  0  0  0  0
    0.9833   -3.2117   -3.3061 H   0  0  0  0  0  0  0  0  0  0  0  0
    1.2804   -6.0578   -2.9999 H   0  0  0  0  0  0  0  0  0  0  0  0
    0.2012   -6.4240   -4.3243 H   0  0  0  0  0  0  0  0  0  0  0  0
   -1.0809   -5.5951   -2.4126 H   0  0  0  0  0  0  0  0  0  0  0  0
    0.4371   -5.0440   -0.3930 H   0  0  0  0  0  0  0  0  0  0  0  0
    1.8034   -4.8793   -1.4696 H   0  0  0  0  0  0  0  0  0  0  0  0
    1.3490   -3.5539   -0.4256 H   0  0  0  0  0  0  0  0  0  0  0  0
    1.1682   -2.0906   -2.6837 H   0  0  0  0  0  0  0  0  0  0  0  0
    1.4205   -3.4768   -3.7167 H   0  0  0  0  0  0  0  0  0  0  0  0
   -0.8067   -3.3100   -4.4532 H   0  0  0  0  0  0  0  0  0  0  0  0
    0.1430   -1.8428   -4.7985 H   0  0  0  0  0  0  0  0  0  0  0  0
   -0.8869   -0.8194   -2.9343 H   0  0  0  0  0  0  0  0  0  0  0  0
   -3.4264   -1.8824   -5.7924 H   0  0  0  0  0  0  0  0  0  0  0  0
   -0.7668   -4.8152   -5.8590 H   0  0  0  0  0  0  0  0  0  0  0  0
    0.1913   -2.5691   -5.3331 H   0  0  0  0  0  0  0  0  0  0  0  0
   -0.8125   -2.4900   -3.9050 H   0  0  0  0  0  0  0  0  0  0  0  0
    0.2706   -4.3874   -3.1085 H   0  0  0  0  0  0  0  0  0  0  0  0
   -2.5554   -5.5580   -4.5055 H   0  0  0  0  0  0  0  0  0  0  0  0
   -0.1114   -4.9997   -3.1001 H   0  0  0  0  0  0  0  0  0  0  0  0
   -2.9410   -4.4948   -2.3362 H   0  0  0  0  0  0  0  0  0  0  0  0
   -1.0553   -2.5467   -3.2843 H   0  0  0  0  0  0  0  0  0  0  0  0
   -4.3027   -3.7349   -4.2206 H   0  0  0  0  0  0  0  0  0  0  0  0
   -3.3411   -0.5557   -1.7151 H   0  0  0  0  0  0  0  0  0  0  0  0
   -1.3605   -4.1491   -2.7953 H   0  0  0  0  0  0  0  0  0  0  0  0
   -3.8552   -4.2725   -2.7804 H   0  0  0  0  0  0  0  0  0  0  0  0
   -3.9150   -2.9317   -3.8992 H   0  0  0  0  0  0  0  0  0  0  0  0
   -3.3839   -5.5458   -7.3593 H   0  0  0  0  0  0  0  0  0  0  0  0
   -1.9087   -4.7407   -7.8377 H   0  0  0  0  0  0  0  0  0  0  0  0
    0.2450   -7.0697   -5.8151 H   0  0  0  0  0  0  0  0  0  0  0  0
   -0.3869   -2.3305   -3.9475 H   0  0  0  0  0  0  0  0  0  0  0  0
   -2.0494   -4.0417   -5.5501 H   0  0  0  0  0  0  0  0  0  0  0  0
   -1.7247   -1.0854   -5.5741 H   0  0  0  0  0  0  0  0  0  0  0  0
   -3.9237   -2.5521   -4.4499 H   0  0  0  0  0  0  0  0  0  0  0  0
   -1.5219   -0.1433   -3.3260 H   0  0  0  0  0  0  0  0  0  0  0  0
   -4.1946    0.0631   -4.3558 H   0  0  0  0  0  0  0  0  0  0  0  0
   -3.2364   -4.2897   -2.2995 H   0  0  0  0  0  0  0  0  0  0  0  0
   -3.4567   -3.3265   -3.7406 H   0  0  0  0  0  0  0  0  0  0  0  0
   -2.0122   -4.2902   -3.5463 H   0  0  0  0  0  0  0  0  0  0  0  0
   -2.6034   -0.8530   -1.1554 H   0  0  0  0  0  0  0  0  0  0  0  0
   -3.8017   -1.3104   -2.3420 H   0  0  0  0  0  0  0  0  0  0  0  0
   -3.5846   -2.2765   -0.9023 H   0  0  0  0  0  0  0  0  0  0  0  0
   -0.5725   -2.2182   -0.8360 H   0  0  0  0  0  0  0  0  0  0  0  0
   -2.4594   -3.3986    0.1791 H   0  0  0  0  0  0  0  0  0  0  0  0
   -2.1530   -4.7764   -0.8510 H   0  0  0  0  0  0  0  0  0  0  0  0
   -3.1058   -4.1168   -2.7247 H   0  0  0  0  0  0  0  0  0  0  0  0
   -2.0848   -2.6989   -2.7434 H   0  0  0  0  0  0  0  0  0  0  0  0
   -1.3174   -5.8992   -5.3979 H   0  0  0  0  0  0  0  0  0  0  0  0
   -2.6537   -5.9931   -4.2761 H   0  0  0  0  0  0  0  0  0  0  0  0
   -2.7229   -4.8867   -5.6267 H   0  0  0  0  0  0  0  0  0  0  0  0
  1  2  1  0  0  0  0
  1 82  1  0  0  0  0
  1 83  1  0  0  0  0
  1 84  1  0  0  0  0
  2  3  1  0  0  0  0
  2  4  2  0  0  0  0
  3 85  1  0  0  0  0
  3 86  1  0  0  0  0
  3 87  1  0  0  0  0
  4  5  1  0  0  0  0
  4 88  1  0  0  0  0
  5  6  1  0  0  0  0
  5 89  1  0  0  0  0
  5 90  1  0  0  0  0
  6  7  1  0  0  0  0
  6 91  1  0  0  0  0
  6 92  1  0  0  0  0
  7  8  1  0  0  0  0
  7  9  1  0  0  0  0
  7 30  1  0  0  0  0
  8 93  1  0  0  0  0
  8 94  1  0  0  0  0
  8 95  1  0  0  0  0
  9 10  1  0  0  0  0
 10 11  1  0  0  0  0
 10 28  1  0  0  0  0
 10 96  1  0  0  0  0
 11 12  1  0  0  0  0
 12 13  1  0  0  0  0
 12 24  1  0  0  0  0
 12 97  1  0  0  0  0
 13 14  1  0  0  0  0
 13 98  1  0  0  0  0
 13 99  1  0  0  0  0
 14 15  1  0  0  0  0
 15 16  1  0  0  0  0
 15 22  1  0  0  0  0
 15100  1  0  0  0  0
 16 17  1  0  0  0  0
 17 18  1  0  0  0  0
 17 20  1  0  0  0  0
 17101  1  0  0  0  0
 18 19  1  0  0  0  0
 18102  1  0  0  0  0
 18103  1  0  0  0  0
 19104  1  0  0  0  0
 20 21  1  0  0  0  0
 20 22  1  0  0  0  0
 20105  1  0  0  0  0
 21106  1  0  0  0  0
 22 23  1  0  0  0  0
 22107  1  0  0  0  0
 23108  1  0  0  0  0
 24 25  1  0  0  0  0
 24 26  1  0  0  0  0
 24109  1  0  0  0  0
 25110  1  0  0  0  0
 26 27  1  0  0  0  0
 26 28  1  0  0  0  0
 26111  1  0  0  0  0
 27112  1  0  0  0  0
 28 29  1  0  0  0  0
 28113  1  0  0  0  0
 29114  1  0  0  0  0
 30 31  1  0  0  0  0
 30 35  1  0  0  0  0
 30115  1  0  0  0  0
 31 32  1  0  0  0  0
 31116  1  0  0  0  0
 31117  1  0  0  0  0
 32 33  1  0  0  0  0
 32118  1  0  0  0  0
 32119  1  0  0  0  0
 33 34  1  0  0  0  0
 33 35  1  0  0  0  0
 33 80  1  0  0  0  0
 34120  1  0  0  0  0
 34121  1  0  0  0  0
 34122  1  0  0  0  0
 35 36  1  0  0  0  0
 35123  1  0  0  0  0
 36 37  1  0  0  0  0
 36 38  1  0  0  0  0
 36124  1  0  0  0  0
 37125  1  0  0  0  0
 38 39  1  0  0  0  0
 38126  1  0  0  0  0
 38127  1  0  0  0  0
 39 40  1  0  0  0  0
 39 80  1  0  0  0  0
 39128  1  0  0  0  0
 40 41  1  0  0  0  0
 40 42  1  0  0  0  0
 40 77  1  0  0  0  0
 41129  1  0  0  0  0
 41130  1  0  0  0  0
 41131  1  0  0  0  0
 42 43  1  0  0  0  0
 42132  1  0  0  0  0
 42133  1  0  0  0  0
 43 44  1  0  0  0  0
 43134  1  0  0  0  0
 43135  1  0  0  0  0
 44 45  1  0  0  0  0
 44 74  1  0  0  0  0
 44136  1  0  0  0  0
 45 46  1  0  0  0  0
 46 47  1  0  0  0  0
 46 55  1  0  0  0  0
 46137  1  0  0  0  0
 47 48  1  0  0  0  0
 48 49  1  0  0  0  0
 48 51  1  0  0  0  0
 48138  1  0  0  0  0
 49 50  1  0  0  0  0
 49139  1  0  0  0  0
 49140  1  0  0  0  0
 50141  1  0  0  0  0
 51 52  1  0  0  0  0
 51 53  1  0  0  0  0
 51142  1  0  0  0  0
 52143  1  0  0  0  0
 53 54  1  0  0  0  0
 53 55  1  0  0  0  0
 53144  1  0  0  0  0
 54145  1  0  0  0  0
 55 56  1  0  0  0  0
 55146  1  0  0  0  0
 56 57  1  0  0  0  0
 57 58  1  0  0  0  0
 57 72  1  0  0  0  0
 57147  1  0  0  0  0
 58 59  1  0  0  0  0
 59 60  1  0  0  0  0
 59 68  1  0  0  0  0
 59148  1  0  0  0  0
 60 61  1  0  0  0  0
 60149  1  0  0  0  0
 60150  1  0  0  0  0
 61 62  1  0  0  0  0
 62 63  2  0  0  0  0
 62 64  1  0  0  0  0
 64 65  1  0  0  0  0
 64151  1  0  0  0  0
 64152  1  0  0  0  0
 65 66  2  0  0  0  0
 65 67  1  0  0  0  0
 67153  1  0  0  0  0
 68 69  1  0  0  0  0
 68 70  1  0  0  0  0
 68154  1  0  0  0  0
 69155  1  0  0  0  0
 70 71  1  0  0  0  0
 70 72  1  0  0  0  0
 70156  1  0  0  0  0
 71157  1  0  0  0  0
 72 73  1  0  0  0  0
 72158  1  0  0  0  0
 73159  1  0  0  0  0
 74 75  1  0  0  0  0
 74 76  1  0  0  0  0
 74 77  1  0  0  0  0
 75160  1  0  0  0  0
 75161  1  0  0  0  0
 75162  1  0  0  0  0
 76163  1  0  0  0  0
 76164  1  0  0  0  0
 76165  1  0  0  0  0
 77 78  1  0  0  0  0
 77166  1  0  0  0  0
 78 79  1  0  0  0  0
 78167  1  0  0  0  0
 78168  1  0  0  0  0
 79 80  1  0  0  0  0
 79169  1  0  0  0  0
 79170  1  0  0  0  0
 80 81  1  0  0  0  0
 81171  1  0  0  0  0
 81172  1  0  0  0  0
 81173  1  0  0  0  0
M  END
