REMARK  Name = 
REMARK  8 active torsions:
REMARK  status: ('A' for Active; 'I' for Inactive)
REMARK    1  A    between atoms: C_1  and  O_2
REMARK    2  A    between atoms: O_2  and  C_3
REMARK    3  A    between atoms: C_5  and  N_6
REMARK    4  A    between atoms: N_9  and  C_10
REMARK    5  A    between atoms: C_10  and  C_11
REMARK    6  A    between atoms: C_10  and  C_12
REMARK    7  A    between atoms: C_17  and  N_18
REMARK    8  A    between atoms: N_22  and  C_23
REMARK                            x       y       z     vdW  Elec       q    Type
REMARK                         _______ _______ _______ _____ _____    ______ ____
ROOT
ATOM      1  N   UNL     1       3.098   1.098   1.202  0.00  0.00    +0.000 N 
ATOM      2  C   UNL     1       4.492   1.117   1.669  0.00  0.00    +0.000 A 
ATOM      3  N   UNL     1       4.644   1.103   2.998  0.00  0.00    +0.000 NA
ATOM      4  C   UNL     1       5.907   1.127   3.486  0.00  0.00    +0.000 A 
ATOM      5  N   UNL     1       6.148   0.999   4.931  0.00  0.00    +0.000 N 
ATOM      6  C   UNL     1       6.995   1.277   2.590  0.00  0.00    +0.000 A 
ATOM      7  C   UNL     1       8.443   1.453   2.627  0.00  0.00    +0.000 A 
ATOM      8  C   UNL     1       8.845   1.473   1.335  0.00  0.00    +0.000 A 
ATOM      9  N   UNL     1       7.778   1.335   0.461  0.00  0.00    +0.000 N 
ATOM     10  C   UNL     1       6.642   1.240   1.231  0.00  0.00    +0.000 A 
ATOM     11  N   UNL     1       5.399   1.145   0.713  0.00  0.00    +0.000 NA
ATOM     12  H   UNL     1       2.768   0.334   0.612  0.00  0.00    +0.000 HD
ATOM     13  H   UNL     1       5.361   0.891   5.571  0.00  0.00    +0.000 HD
ATOM     14  H   UNL     1       7.825   1.309  -0.558  0.00  0.00    +0.000 HD
ENDROOT
BRANCH   5  15
ATOM     15  C   UNL     1       7.522   1.027   5.453  0.00  0.00    +0.000 A 
ATOM     16  C   UNL     1       8.004  -0.066   6.154  0.00  0.00    +0.000 A 
ATOM     17  C   UNL     1       9.211   0.186   6.849  0.00  0.00    +0.000 A 
ATOM     18  C   UNL     1      10.019   1.201   6.603  0.00  0.00    +0.000 A 
ATOM     19  C   UNL     1       9.505   2.218   5.848  0.00  0.00    +0.000 A 
ATOM     20  N   UNL     1      10.237   3.393   5.689  0.00  0.00    +0.000 NA
ATOM     21  C   UNL     1       9.723   4.435   4.922  0.00  0.00    +0.000 A 
ATOM     22  C   UNL     1       8.434   4.299   4.293  0.00  0.00    +0.000 A 
ATOM     23  C   UNL     1       7.803   3.146   4.376  0.00  0.00    +0.000 A 
ATOM     24  C   UNL     1       8.277   2.099   5.244  0.00  0.00    +0.000 A 
ENDBRANCH   5  15
BRANCH   1  30
ATOM     25  C   UNL     1       0.922   2.156   1.162  0.00  0.00    +0.000 A 
ATOM     26  C   UNL     1      -0.010   3.070   1.627  0.00  0.00    +0.000 A 
ATOM     27  C   UNL     1       0.556   4.160   2.329  0.00  0.00    +0.000 A 
ATOM     28  C   UNL     1       1.778   4.175   2.831  0.00  0.00    +0.000 A 
ATOM     29  C   UNL     1       2.631   3.205   2.382  0.00  0.00    +0.000 A 
ATOM     30  C   UNL     1       2.180   2.179   1.587  0.00  0.00    +0.000 A 
BRANCH  27  31
ATOM     31  N   UNL     1      -0.273   5.360   2.511  0.00  0.00    +0.000 N 
ATOM     32  C   UNL     1      -1.656   5.212   2.979  0.00  0.00    +0.000 C 
ATOM     33  C   UNL     1      -1.962   6.165   4.118  0.00  0.00    +0.000 C 
ATOM     34  N   UNL     1      -1.757   7.553   3.687  0.00  0.00    +0.000 NA
ATOM     35  C   UNL     1      -0.373   7.702   3.219  0.00  0.00    +0.000 C 
ATOM     36  C   UNL     1      -0.067   6.748   2.080  0.00  0.00    +0.000 C 
BRANCH  34  37
ATOM     37  C   UNL     1      -2.686   7.874   2.594  0.00  0.00    +0.000 C 
ATOM     38  C   UNL     1      -2.432   6.939   1.423  0.00  0.00    +0.000 C 
ATOM     39  C   UNL     1      -4.116   7.702   3.079  0.00  0.00    +0.000 C 
ENDBRANCH  34  37
ENDBRANCH  27  31
BRANCH  25  41
ATOM     40  C   UNL     1       1.052  -0.045   0.073  0.00  0.00    +0.000 C 
ATOM     41  O   UNL     1       0.579   1.294   0.088  0.00  0.00    +0.000 OA
ENDBRANCH  25  41
ENDBRANCH   1  30
TORSDOF 5
