REMARK  Name = 
REMARK  5 active torsions:
REMARK  status: ('A' for Active; 'I' for Inactive)
REMARK    1  A    between atoms: C_2  and  C_4
REMARK    2  A    between atoms: C_6  and  N_7
REMARK    3  A    between atoms: C_17  and  O_18
REMARK    4  A    between atoms: O_18  and  C_19
REMARK    5  A    between atoms: C_19  and  C_20
REMARK                            x       y       z     vdW  Elec       q    Type
REMARK                         _______ _______ _______ _____ _____    ______ ____
ROOT
ATOM      1  C   UNL     1       1.115  -1.653  -1.962  0.00  0.00    +0.000 A 
ATOM      2  S   UNL     1       0.783  -1.521  -3.647  0.00  0.00    +0.000 S 
ATOM      3  C   UNL     1       2.116  -2.542  -4.020  0.00  0.00    +0.000 A 
ATOM      4  C   UNL     1       2.765  -2.967  -2.903  0.00  0.00    +0.000 A 
ATOM      5  C   UNL     1       2.202  -2.463  -1.726  0.00  0.00    +0.000 A 
ENDROOT
BRANCH   3   6
ATOM      6  N   UNL     1       2.509  -2.911  -5.387  0.00  0.00    +0.000 N 
ATOM      7  C   UNL     1       2.771  -2.083  -6.378  0.00  0.00    +0.000 A 
ATOM      8  N   UNL     1       2.992  -2.755  -7.498  0.00  0.00    +0.000 NA
ATOM      9  C   UNL     1       2.875  -4.057  -7.245  0.00  0.00    +0.000 A 
ATOM     10  C   UNL     1       2.993  -5.237  -8.009  0.00  0.00    +0.000 A 
ATOM     11  C   UNL     1       2.805  -6.434  -7.413  0.00  0.00    +0.000 A 
ATOM     12  C   UNL     1       2.497  -6.532  -6.093  0.00  0.00    +0.000 A 
ATOM     13  C   UNL     1       2.377  -5.436  -5.310  0.00  0.00    +0.000 A 
ATOM     14  C   UNL     1       2.559  -4.167  -5.861  0.00  0.00    +0.000 A 
ENDBRANCH   3   6
BRANCH   1  16
ATOM     15  N   UNL     1       1.090  -0.013   0.042  0.00  0.00    +0.000 N 
ATOM     16  C   UNL     1       0.355  -0.819  -0.944  0.00  0.00    +0.000 C 
ATOM     17  O   UNL     1      -0.916  -0.819  -0.944  0.00  0.00    +0.000 OA
ATOM     18  H   UNL     1       0.580   0.547   0.725  0.00  0.00    +0.000 HD
ATOM     19  H   UNL     1       2.110  -0.013   0.042  0.00  0.00    +0.000 HD
ENDBRANCH   1  16
BRANCH   5  20
ATOM     20  O   UNL     1       2.698  -2.755  -0.428  0.00  0.00    +0.000 OA
BRANCH  20  21
ATOM     21  C   UNL     1       2.065  -2.200   0.716  0.00  0.00    +0.000 C 
BRANCH  21  22
ATOM     22  C   UNL     1       2.115  -0.682   0.636  0.00  0.00    +0.000 A 
ATOM     23  C   UNL     1       3.018   0.033   1.471  0.00  0.00    +0.000 A 
ATOM     24  C   UNL     1       2.881   1.425   1.601  0.00  0.00    +0.000 A 
ATOM     25  C   UNL     1       2.130   2.085   0.770  0.00  0.00    +0.000 A 
ATOM     26  C   UNL     1       1.463   1.411  -0.262  0.00  0.00    +0.000 A 
ATOM     27  C   UNL     1       1.350  -0.000  -0.218  0.00  0.00    +0.000 A 
ATOM     28 BR   UNL     1       0.090  -0.935  -1.393  0.00  0.00    +0.000 Br
ENDBRANCH  21  22
ENDBRANCH  20  21
ENDBRANCH   5  20
TORSDOF 5
