
 OpenBabel03132512093D

 54 57  0  0  0  0  0  0  0  0999 V2000
    0.9842    0.0346    0.0925 C   0  0  0  0  0  0  0  0  0  0  0  0
    0.4942   -0.1781    1.4620 N   0  0  0  0  0  0  0  0  0  0  0  0
   -0.3510    0.8375    2.1063 C   0  0  0  0  0  0  0  0  0  0  0  0
   -0.7746    0.6536    3.2903 O   0  0  0  0  0  0  0  0  0  0  0  0
   -0.7182    2.1076    1.3565 C   0  0  0  0  0  0  0  0  0  0  0  0
   -0.4226    3.6629    2.0359 S   0  0  0  0  0  0  0  0  0  0  0  0
   -0.8596    4.4243    0.5563 C   0  0  0  0  0  0  0  0  0  0  0  0
   -0.8400    5.8790    0.3456 N   0  0  0  0  0  0  0  0  0  0  0  0
    0.2279    6.6561    0.4691 C   0  0  0  0  0  0  0  0  0  0  0  0
   -0.0861    7.9120    0.2186 N   0  0  0  0  0  0  0  0  0  0  0  0
   -1.3942    7.9678   -0.0720 C   0  0  0  0  0  0  0  0  0  0  0  0
   -2.2857    8.9965   -0.4138 C   0  0  0  0  0  0  0  0  0  0  0  0
   -3.6249    8.6665   -0.6542 C   0  0  0  0  0  0  0  0  0  0  0  0
   -4.5525    9.6838   -1.0022 O   0  0  0  0  0  0  0  0  0  0  0  0
   -5.9114    9.3521   -1.2467 C   0  0  0  0  0  0  0  0  0  0  0  0
   -4.0417    7.3724   -0.5556 C   0  0  0  0  0  0  0  0  0  0  0  0
   -5.4052    7.0644   -0.8055 O   0  0  0  0  0  0  0  0  0  0  0  0
   -6.3144    8.0983   -1.1531 C   0  0  0  0  0  0  0  0  0  0  0  0
   -3.1980    6.3821   -0.2285 C   0  0  0  0  0  0  0  0  0  0  0  0
   -1.8825    6.6348    0.0170 C   0  0  0  0  0  0  0  0  0  0  0  0
   -1.2254    3.5243   -0.3960 C   0  0  0  0  0  0  0  0  0  0  0  0
   -1.1449    2.2014    0.0520 C   0  0  0  0  0  0  0  0  0  0  0  0
   -1.4685    1.0771   -0.7527 O   0  0  0  0  0  0  0  0  0  0  0  0
   -1.3587   -0.2338   -0.2181 C   0  0  0  0  0  0  0  0  0  0  0  0
    0.0779   -0.4886    0.2079 C   0  0  0  0  0  0  0  0  0  0  0  0
    0.9500    0.5959    0.5038 C   0  0  0  0  0  0  0  0  0  0  0  0
    2.3311    0.3615    0.6054 C   0  0  0  0  0  0  0  0  0  0  0  0
    2.7791   -0.8556    0.7023 C   0  0  0  0  0  0  0  0  0  0  0  0
    1.8848   -1.9343    0.7164 C   0  0  0  0  0  0  0  0  0  0  0  0
    0.5417   -1.7349    0.3143 C   0  0  0  0  0  0  0  0  0  0  0  0
   -0.3572   -2.9220    0.0088 C   0  0  0  0  0  0  0  0  0  0  0  0
    0.1676   -3.6308   -0.9868 F   0  0  0  0  0  0  0  0  0  0  0  0
   -0.4629   -3.6881    1.0908 F   0  0  0  0  0  0  0  0  0  0  0  0
   -1.5627   -2.4857   -0.3450 F   0  0  0  0  0  0  0  0  0  0  0  0
    0.6275    0.9753   -0.2718 H   0  0  0  0  0  0  0  0  0  0  0  0
    0.6275   -0.7513   -0.5401 H   0  0  0  0  0  0  0  0  0  0  0  0
    2.0542    0.0346    0.0925 H   0  0  0  0  0  0  0  0  0  0  0  0
    0.7406   -1.0305    1.9652 H   0  0  0  0  0  0  0  0  0  0  0  0
    1.2058    6.3124    0.7344 H   0  0  0  0  0  0  0  0  0  0  0  0
   -1.9496   10.0095   -0.4889 H   0  0  0  0  0  0  0  0  0  0  0  0
   -5.9688    8.6604   -2.0610 H   0  0  0  0  0  0  0  0  0  0  0  0
   -6.3331    8.9067   -0.3699 H   0  0  0  0  0  0  0  0  0  0  0  0
   -6.4563   10.2393   -1.4933 H   0  0  0  0  0  0  0  0  0  0  0  0
   -6.3529    8.8197   -0.3638 H   0  0  0  0  0  0  0  0  0  0  0  0
   -5.9872    8.5729   -2.0545 H   0  0  0  0  0  0  0  0  0  0  0  0
   -7.2884    7.6812   -1.3029 H   0  0  0  0  0  0  0  0  0  0  0  0
   -3.5639    5.3790   -0.1596 H   0  0  0  0  0  0  0  0  0  0  0  0
   -1.5407    3.7985   -1.3810 H   0  0  0  0  0  0  0  0  0  0  0  0
   -2.0043   -0.3284    0.6299 H   0  0  0  0  0  0  0  0  0  0  0  0
   -1.6417   -0.9477   -0.9632 H   0  0  0  0  0  0  0  0  0  0  0  0
    0.5575    1.5809    0.6476 H   0  0  0  0  0  0  0  0  0  0  0  0
    3.0149    1.1845    0.6030 H   0  0  0  0  0  0  0  0  0  0  0  0
    3.8320   -1.0335    0.7715 H   0  0  0  0  0  0  0  0  0  0  0  0
    2.2149   -2.9029    1.0291 H   0  0  0  0  0  0  0  0  0  0  0  0
  1  2  1  0  0  0  0
  1 35  1  0  0  0  0
  1 36  1  0  0  0  0
  1 37  1  0  0  0  0
  2  3  1  0  0  0  0
  2 38  1  0  0  0  0
  3  4  2  0  0  0  0
  3  5  1  0  0  0  0
  5  6  1  0  0  0  0
  5 22  2  0  0  0  0
  6  7  1  0  0  0  0
  7  8  1  0  0  0  0
  7 21  2  0  0  0  0
  8  9  1  0  0  0  0
  8 20  1  0  0  0  0
  9 10  2  0  0  0  0
  9 39  1  0  0  0  0
 10 11  1  0  0  0  0
 11 12  1  0  0  0  0
 11 20  2  0  0  0  0
 12 13  2  0  0  0  0
 12 40  1  0  0  0  0
 13 14  1  0  0  0  0
 13 16  1  0  0  0  0
 14 15  1  0  0  0  0
 15 41  1  0  0  0  0
 15 42  1  0  0  0  0
 15 43  1  0  0  0  0
 16 17  1  0  0  0  0
 16 19  2  0  0  0  0
 17 18  1  0  0  0  0
 18 44  1  0  0  0  0
 18 45  1  0  0  0  0
 18 46  1  0  0  0  0
 19 20  1  0  0  0  0
 19 47  1  0  0  0  0
 21 22  1  0  0  0  0
 21 48  1  0  0  0  0
 22 23  1  0  0  0  0
 23 24  1  0  0  0  0
 24 25  1  0  0  0  0
 24 49  1  0  0  0  0
 24 50  1  0  0  0  0
 25 26  1  0  0  0  0
 25 30  2  0  0  0  0
 26 27  2  0  0  0  0
 26 51  1  0  0  0  0
 27 28  1  0  0  0  0
 27 52  1  0  0  0  0
 28 29  2  0  0  0  0
 28 53  1  0  0  0  0
 29 30  1  0  0  0  0
 29 54  1  0  0  0  0
 30 31  1  0  0  0  0
 31 32  1  0  0  0  0
 31 33  1  0  0  0  0
 31 34  1  0  0  0  0
M  END
