
 OpenBabel03132512093D

 70 75  0  0  0  0  0  0  0  0999 V2000
    1.0956    0.0127   -0.0265 C   0  0  0  0  0  0  0  0  0  0  0  0
    0.6222   -1.2565    0.3993 O   0  0  0  0  0  0  0  0  0  0  0  0
    0.9653   -2.4242   -0.3323 C   0  0  0  0  0  0  0  0  0  0  0  0
   -0.1097   -3.2348   -0.6576 C   0  0  0  0  0  0  0  0  0  0  0  0
    0.2601   -4.4770   -1.2253 C   0  0  0  0  0  0  0  0  0  0  0  0
   -0.7446   -5.5501   -1.2363 N   0  0  0  0  0  0  0  0  0  0  0  0
   -2.1269   -5.6342   -1.7232 C   0  0  0  0  0  0  0  0  0  0  0  0
   -2.3209   -6.8271   -2.6393 C   0  0  0  0  0  0  0  0  0  0  0  0
   -1.9944   -8.0699   -1.9300 N   0  0  0  0  0  0  0  0  0  0  0  0
   -2.9094   -8.2452   -0.7929 C   0  0  0  0  0  0  0  0  0  0  0  0
   -2.7660   -7.0686    0.1588 C   0  0  0  0  0  0  0  0  0  0  0  0
   -4.3405   -8.3151   -1.3002 C   0  0  0  0  0  0  0  0  0  0  0  0
   -0.6120   -7.9858   -1.4430 C   0  0  0  0  0  0  0  0  0  0  0  0
   -0.4180   -6.7929   -0.5269 C   0  0  0  0  0  0  0  0  0  0  0  0
    1.4450   -4.7394   -1.7460 C   0  0  0  0  0  0  0  0  0  0  0  0
    2.4500   -3.8633   -1.4428 C   0  0  0  0  0  0  0  0  0  0  0  0
    2.1881   -2.6909   -0.7758 C   0  0  0  0  0  0  0  0  0  0  0  0
    3.2716   -1.7232   -0.5512 N   0  0  0  0  0  0  0  0  0  0  0  0
    4.6278   -2.0117   -1.0394 C   0  0  0  0  0  0  0  0  0  0  0  0
    4.7312   -2.1851   -2.3616 N   0  0  0  0  0  0  0  0  0  0  0  0
    5.9570   -2.4683   -2.8648 C   0  0  0  0  0  0  0  0  0  0  0  0
    6.1611   -2.5586   -4.3177 N   0  0  0  0  0  0  0  0  0  0  0  0
    7.4943   -2.8663   -4.8550 C   0  0  0  0  0  0  0  0  0  0  0  0
    8.1132   -1.9510   -5.6903 C   0  0  0  0  0  0  0  0  0  0  0  0
    9.2452   -2.4652   -6.3657 C   0  0  0  0  0  0  0  0  0  0  0  0
    9.8989   -3.5558   -6.0088 C   0  0  0  0  0  0  0  0  0  0  0  0
    9.2622   -4.3857   -5.1283 C   0  0  0  0  0  0  0  0  0  0  0  0
    9.8141   -5.6308   -4.8369 N   0  0  0  0  0  0  0  0  0  0  0  0
    9.1739   -6.4841   -3.9414 C   0  0  0  0  0  0  0  0  0  0  0  0
    7.9411   -6.0788   -3.3167 C   0  0  0  0  0  0  0  0  0  0  0  0
    7.4886   -4.8612   -3.5311 C   0  0  0  0  0  0  0  0  0  0  0  0
    8.0857   -4.0090   -4.5267 C   0  0  0  0  0  0  0  0  0  0  0  0
    7.0403   -2.6766   -1.9749 C   0  0  0  0  0  0  0  0  0  0  0  0
    8.4417   -3.0811   -2.0139 C   0  0  0  0  0  0  0  0  0  0  0  0
    8.8835   -3.0051   -0.7363 C   0  0  0  0  0  0  0  0  0  0  0  0
    7.8825   -2.5944    0.1307 N   0  0  0  0  0  0  0  0  0  0  0  0
    6.7476   -2.4174   -0.6263 C   0  0  0  0  0  0  0  0  0  0  0  0
    5.5539   -2.0648   -0.1030 N   0  0  0  0  0  0  0  0  0  0  0  0
    0.7389    0.7688    0.6414 H   0  0  0  0  0  0  0  0  0  0  0  0
    0.7389    0.2131   -1.0152 H   0  0  0  0  0  0  0  0  0  0  0  0
    2.1656    0.0127   -0.0265 H   0  0  0  0  0  0  0  0  0  0  0  0
   -1.1275   -2.9477   -0.4943 H   0  0  0  0  0  0  0  0  0  0  0  0
   -2.7742   -5.7499   -0.8791 H   0  0  0  0  0  0  0  0  0  0  0  0
   -2.3608   -4.7400   -2.2623 H   0  0  0  0  0  0  0  0  0  0  0  0
   -1.6725   -6.7271   -3.4846 H   0  0  0  0  0  0  0  0  0  0  0  0
   -3.3403   -6.8622   -2.9627 H   0  0  0  0  0  0  0  0  0  0  0  0
   -2.6688   -9.1518   -0.2780 H   0  0  0  0  0  0  0  0  0  0  0  0
   -3.0066   -6.1621   -0.3561 H   0  0  0  0  0  0  0  0  0  0  0  0
   -3.4320   -7.1962    0.9865 H   0  0  0  0  0  0  0  0  0  0  0  0
   -1.7586   -7.0194    0.5159 H   0  0  0  0  0  0  0  0  0  0  0  0
   -4.4414   -9.1433   -1.9701 H   0  0  0  0  0  0  0  0  0  0  0  0
   -5.0065   -8.4427   -0.4725 H   0  0  0  0  0  0  0  0  0  0  0  0
   -4.5811   -7.4085   -1.8151 H   0  0  0  0  0  0  0  0  0  0  0  0
    0.0352   -7.8701   -2.2872 H   0  0  0  0  0  0  0  0  0  0  0  0
   -0.3781   -8.8800   -0.9040 H   0  0  0  0  0  0  0  0  0  0  0  0
    0.6041   -6.7569   -0.2125 H   0  0  0  0  0  0  0  0  0  0  0  0
   -1.0589   -6.8929    0.3240 H   0  0  0  0  0  0  0  0  0  0  0  0
    1.6097   -5.5917   -2.3716 H   0  0  0  0  0  0  0  0  0  0  0  0
    3.4549   -4.0941   -1.7290 H   0  0  0  0  0  0  0  0  0  0  0  0
    3.0823   -0.8514   -0.0566 H   0  0  0  0  0  0  0  0  0  0  0  0
    5.3775   -2.4078   -4.9531 H   0  0  0  0  0  0  0  0  0  0  0  0
    7.7668   -0.9461   -5.8135 H   0  0  0  0  0  0  0  0  0  0  0  0
    9.5960   -1.9335   -7.2255 H   0  0  0  0  0  0  0  0  0  0  0  0
   10.8744   -3.7780   -6.3883 H   0  0  0  0  0  0  0  0  0  0  0  0
    9.5979   -7.4406   -3.7175 H   0  0  0  0  0  0  0  0  0  0  0  0
    7.5171   -5.1223   -3.5405 H   0  0  0  0  0  0  0  0  0  0  0  0
    6.5725   -4.5726   -3.0596 H   0  0  0  0  0  0  0  0  0  0  0  0
    9.0042   -3.3769   -2.8747 H   0  0  0  0  0  0  0  0  0  0  0  0
    9.8836   -3.2342   -0.4326 H   0  0  0  0  0  0  0  0  0  0  0  0
    7.9707   -2.4511    1.1368 H   0  0  0  0  0  0  0  0  0  0  0  0
  1  2  1  0  0  0  0
  1 39  1  0  0  0  0
  1 40  1  0  0  0  0
  1 41  1  0  0  0  0
  2  3  1  0  0  0  0
  3  4  1  0  0  0  0
  3 17  2  0  0  0  0
  4  5  2  0  0  0  0
  4 42  1  0  0  0  0
  5  6  1  0  0  0  0
  5 15  1  0  0  0  0
  6  7  1  0  0  0  0
  6 14  1  0  0  0  0
  7  8  1  0  0  0  0
  7 43  1  0  0  0  0
  7 44  1  0  0  0  0
  8  9  1  0  0  0  0
  8 45  1  0  0  0  0
  8 46  1  0  0  0  0
  9 10  1  0  0  0  0
  9 13  1  0  0  0  0
 10 11  1  0  0  0  0
 10 12  1  0  0  0  0
 10 47  1  0  0  0  0
 11 48  1  0  0  0  0
 11 49  1  0  0  0  0
 11 50  1  0  0  0  0
 12 51  1  0  0  0  0
 12 52  1  0  0  0  0
 12 53  1  0  0  0  0
 13 14  1  0  0  0  0
 13 54  1  0  0  0  0
 13 55  1  0  0  0  0
 14 56  1  0  0  0  0
 14 57  1  0  0  0  0
 15 16  2  0  0  0  0
 15 58  1  0  0  0  0
 16 17  1  0  0  0  0
 16 59  1  0  0  0  0
 17 18  1  0  0  0  0
 18 19  1  0  0  0  0
 18 60  1  0  0  0  0
 19 20  1  0  0  0  0
 19 38  2  0  0  0  0
 20 21  2  0  0  0  0
 21 22  1  0  0  0  0
 21 33  1  0  0  0  0
 22 23  1  0  0  0  0
 22 61  1  0  0  0  0
 23 24  1  0  0  0  0
 23 32  2  0  0  0  0
 24 25  2  0  0  0  0
 24 62  1  0  0  0  0
 25 26  1  0  0  0  0
 25 63  1  0  0  0  0
 26 27  2  0  0  0  0
 26 64  1  0  0  0  0
 27 28  1  0  0  0  0
 27 32  1  0  0  0  0
 28 29  2  0  0  0  0
 29 30  1  0  0  0  0
 29 65  1  0  0  0  0
 30 31  2  0  0  0  0
 30 66  1  0  0  0  0
 31 32  1  0  0  0  0
 31 67  1  0  0  0  0
 33 34  1  0  0  0  0
 33 37  2  0  0  0  0
 34 35  2  0  0  0  0
 34 68  1  0  0  0  0
 35 36  1  0  0  0  0
 35 69  1  0  0  0  0
 36 37  1  0  0  0  0
 36 70  1  0  0  0  0
 37 38  1  0  0  0  0
M  END
