
 OpenBabel03132514253D

 54 57  0  0  0  0  0  0  0  0999 V2000
    1.0939   -0.0341    0.0041 C   0  0  0  0  0  0  0  0  0  0  0  0
    0.6039   -1.4183   -0.0654 N   0  0  0  0  0  0  0  0  0  0  0  0
   -0.2412   -1.9538    1.0116 C   0  0  0  0  0  0  0  0  0  0  0  0
   -0.6649   -3.1505    0.9516 O   0  0  0  0  0  0  0  0  0  0  0  0
   -0.6084   -1.0762    2.1971 C   0  0  0  0  0  0  0  0  0  0  0  0
   -0.7627   -1.7167    3.7889 S   0  0  0  0  0  0  0  0  0  0  0  0
   -1.3823   -0.2180    4.3632 C   0  0  0  0  0  0  0  0  0  0  0  0
   -1.7664    0.0292    5.7604 N   0  0  0  0  0  0  0  0  0  0  0  0
   -0.9529    0.0014    6.8077 C   0  0  0  0  0  0  0  0  0  0  0  0
   -1.6041    0.3346    7.9048 N   0  0  0  0  0  0  0  0  0  0  0  0
   -2.8804    0.5832    7.5762 C   0  0  0  0  0  0  0  0  0  0  0  0
   -4.0252    0.9704    8.2897 C   0  0  0  0  0  0  0  0  0  0  0  0
   -5.2244    1.1390    7.5871 C   0  0  0  0  0  0  0  0  0  0  0  0
   -6.4008    1.5303    8.2793 O   0  0  0  0  0  0  0  0  0  0  0  0
   -7.6185    1.7020    7.5693 C   0  0  0  0  0  0  0  0  0  0  0  0
   -5.2669    0.9290    6.2409 C   0  0  0  0  0  0  0  0  0  0  0  0
   -6.4955    1.1079    5.5518 O   0  0  0  0  0  0  0  0  0  0  0  0
   -7.6589    1.5006    6.2651 C   0  0  0  0  0  0  0  0  0  0  0  0
   -4.1787    0.5577    5.5497 C   0  0  0  0  0  0  0  0  0  0  0  0
   -2.9810    0.3775    6.1722 C   0  0  0  0  0  0  0  0  0  0  0  0
   -1.4756    0.7118    3.3746 C   0  0  0  0  0  0  0  0  0  0  0  0
   -1.0338    0.2307    2.1374 C   0  0  0  0  0  0  0  0  0  0  0  0
   -1.0254    1.0073    0.9486 O   0  0  0  0  0  0  0  0  0  0  0  0
   -0.5596    0.4398   -0.2669 C   0  0  0  0  0  0  0  0  0  0  0  0
    0.8877    0.0059   -0.1015 C   0  0  0  0  0  0  0  0  0  0  0  0
    1.9200    0.9727    0.0534 C   0  0  0  0  0  0  0  0  0  0  0  0
    3.2602    0.5793   -0.0942 C   0  0  0  0  0  0  0  0  0  0  0  0
    3.5710   -0.6836   -0.0976 C   0  0  0  0  0  0  0  0  0  0  0  0
    2.5715   -1.6534    0.0565 C   0  0  0  0  0  0  0  0  0  0  0  0
    1.2121   -1.2881   -0.0989 C   0  0  0  0  0  0  0  0  0  0  0  0
    0.1399   -2.3533   -0.2603 C   0  0  0  0  0  0  0  0  0  0  0  0
    0.3965   -3.0801   -1.3442 F   0  0  0  0  0  0  0  0  0  0  0  0
    0.1335   -3.1417    0.8108 F   0  0  0  0  0  0  0  0  0  0  0  0
   -1.0486   -1.7702   -0.3886 F   0  0  0  0  0  0  0  0  0  0  0  0
    0.7372    0.4258    0.9020 H   0  0  0  0  0  0  0  0  0  0  0  0
    0.7372    0.5135   -0.8431 H   0  0  0  0  0  0  0  0  0  0  0  0
    2.1639   -0.0341    0.0041 H   0  0  0  0  0  0  0  0  0  0  0  0
    0.8503   -2.0072   -0.8609 H   0  0  0  0  0  0  0  0  0  0  0  0
    0.0852   -0.2551    6.7679 H   0  0  0  0  0  0  0  0  0  0  0  0
   -3.9825    1.1330    9.3464 H   0  0  0  0  0  0  0  0  0  0  0  0
   -7.4931    2.4595    6.8241 H   0  0  0  0  0  0  0  0  0  0  0  0
   -7.8900    0.7802    7.0987 H   0  0  0  0  0  0  0  0  0  0  0  0
   -8.3900    1.9957    8.2501 H   0  0  0  0  0  0  0  0  0  0  0  0
   -7.8850    0.7669    7.0104 H   0  0  0  0  0  0  0  0  0  0  0  0
   -7.4865    2.4458    6.7359 H   0  0  0  0  0  0  0  0  0  0  0  0
   -8.4818    1.5849    5.5864 H   0  0  0  0  0  0  0  0  0  0  0  0
   -4.2529    0.4010    4.4939 H   0  0  0  0  0  0  0  0  0  0  0  0
   -1.8467    1.7038    3.5267 H   0  0  0  0  0  0  0  0  0  0  0  0
   -1.1602   -0.4096   -0.5172 H   0  0  0  0  0  0  0  0  0  0  0  0
   -0.6268    1.1671   -1.0488 H   0  0  0  0  0  0  0  0  0  0  0  0
    1.6776    1.9899    0.2802 H   0  0  0  0  0  0  0  0  0  0  0  0
    4.0257    1.3188   -0.2038 H   0  0  0  0  0  0  0  0  0  0  0  0
    4.5914   -0.9824   -0.2183 H   0  0  0  0  0  0  0  0  0  0  0  0
    2.8338   -2.6641    0.2903 H   0  0  0  0  0  0  0  0  0  0  0  0
  1  2  1  0  0  0  0
  1 35  1  0  0  0  0
  1 36  1  0  0  0  0
  1 37  1  0  0  0  0
  2  3  1  0  0  0  0
  2 38  1  0  0  0  0
  3  4  2  0  0  0  0
  3  5  1  0  0  0  0
  5  6  1  0  0  0  0
  5 22  2  0  0  0  0
  6  7  1  0  0  0  0
  7  8  1  0  0  0  0
  7 21  2  0  0  0  0
  8  9  1  0  0  0  0
  8 20  1  0  0  0  0
  9 10  2  0  0  0  0
  9 39  1  0  0  0  0
 10 11  1  0  0  0  0
 11 12  1  0  0  0  0
 11 20  2  0  0  0  0
 12 13  2  0  0  0  0
 12 40  1  0  0  0  0
 13 14  1  0  0  0  0
 13 16  1  0  0  0  0
 14 15  1  0  0  0  0
 15 41  1  0  0  0  0
 15 42  1  0  0  0  0
 15 43  1  0  0  0  0
 16 17  1  0  0  0  0
 16 19  2  0  0  0  0
 17 18  1  0  0  0  0
 18 44  1  0  0  0  0
 18 45  1  0  0  0  0
 18 46  1  0  0  0  0
 19 20  1  0  0  0  0
 19 47  1  0  0  0  0
 21 22  1  0  0  0  0
 21 48  1  0  0  0  0
 22 23  1  0  0  0  0
 23 24  1  0  0  0  0
 24 25  1  0  0  0  0
 24 49  1  0  0  0  0
 24 50  1  0  0  0  0
 25 26  1  0  0  0  0
 25 30  2  0  0  0  0
 26 27  2  0  0  0  0
 26 51  1  0  0  0  0
 27 28  1  0  0  0  0
 27 52  1  0  0  0  0
 28 29  2  0  0  0  0
 28 53  1  0  0  0  0
 29 30  1  0  0  0  0
 29 54  1  0  0  0  0
 30 31  1  0  0  0  0
 31 32  1  0  0  0  0
 31 33  1  0  0  0  0
 31 34  1  0  0  0  0
M  END
