REMARK  Name = 
REMARK  12 active torsions:
REMARK  status: ('A' for Active; 'I' for Inactive)
REMARK    1  A    between atoms: C_1  and  O_2
REMARK    2  A    between atoms: O_2  and  C_3
REMARK    3  A    between atoms: N_8  and  C_9
REMARK    4  A    between atoms: C_11  and  O_12
REMARK    5  A    between atoms: O_12  and  C_13
REMARK    6  A    between atoms: C_13  and  C_14
REMARK    7  A    between atoms: C_19  and  C_20
REMARK    8  A    between atoms: C_24  and  C_25
REMARK    9  A    between atoms: N_27  and  C_28
REMARK   10  A    between atoms: N_27  and  C_29
REMARK   11  A    between atoms: C_33  and  O_34
REMARK   12  A    between atoms: O_34  and  C_35
REMARK                            x       y       z     vdW  Elec       q    Type
REMARK                         _______ _______ _______ _____ _____    ______ ____
ROOT
ATOM      1  C   UNL     1       2.628  -6.261  -3.223  0.00  0.00    +0.000 A 
ATOM      2  C   UNL     1       3.746  -6.748  -2.632  0.00  0.00    +0.000 A 
ATOM      3  C   UNL     1       4.541  -7.182  -3.639  0.00  0.00    +0.000 A 
ATOM      4  C   UNL     1       3.913  -6.950  -4.759  0.00  0.00    +0.000 A 
ATOM      5  S   UNL     1       2.778  -6.398  -4.512  0.00  0.00    +0.000 S 
ENDROOT
BRANCH   1  11
ATOM      6  C   UNL     1       0.929  -2.393  -0.189  0.00  0.00    +0.000 A 
ATOM      7  C   UNL     1      -0.128  -3.232  -0.562  0.00  0.00    +0.000 A 
ATOM      8  C   UNL     1       0.150  -4.332  -1.388  0.00  0.00    +0.000 A 
ATOM      9  N   UNL     1      -0.585  -5.315  -1.928  0.00  0.00    +0.000 NA
ATOM     10  C   UNL     1       0.216  -6.089  -2.634  0.00  0.00    +0.000 A 
ATOM     11  N   UNL     1       1.465  -5.645  -2.569  0.00  0.00    +0.000 N 
ATOM     12  C   UNL     1       1.490  -4.551  -1.815  0.00  0.00    +0.000 A 
ATOM     13  C   UNL     1       2.471  -3.695  -1.417  0.00  0.00    +0.000 A 
ATOM     14  C   UNL     1       2.195  -2.648  -0.625  0.00  0.00    +0.000 A 
BRANCH   6  16
ATOM     15  C   UNL     1       1.059   0.050   0.063  0.00  0.00    +0.000 C 
ATOM     16  O   UNL     1       0.586  -1.209   0.517  0.00  0.00    +0.000 OA
ENDBRANCH   6  16
BRANCH  14  17
ATOM     17  O   UNL     1       3.249  -1.782  -0.232  0.00  0.00    +0.000 OA
ATOM     18  C   UNL     1       2.978  -0.667   0.606  0.00  0.00    +0.000 C 
ENDBRANCH  14  17
ENDBRANCH   1  11
BRANCH   4  19
ATOM     19  C   UNL     1       4.442  -7.280  -6.145  0.00  0.00    +0.000 C 
ATOM     20  O   UNL     1       5.582  -7.827  -6.277  0.00  0.00    +0.000 OA
ATOM     21  N   UNL     1       3.636  -6.968  -7.334  0.00  0.00    +0.000 N 
ATOM     22  C   UNL     1       2.317  -6.335  -7.182  0.00  0.00    +0.000 C 
ATOM     23  C   UNL     1       4.148  -7.287  -8.674  0.00  0.00    +0.000 C 
ENDBRANCH   4  19
BRANCH   3  24
ATOM     24  O   UNL     1       5.822  -7.780  -3.502  0.00  0.00    +0.000 OA
BRANCH  24  25
ATOM     25  C   UNL     1       6.382  -7.970  -2.211  0.00  0.00    +0.000 C 
BRANCH  25  26
ATOM     26  C   UNL     1       6.529  -6.625  -1.519  0.00  0.00    +0.000 A 
ATOM     27  C   UNL     1       5.488  -5.674  -1.713  0.00  0.00    +0.000 A 
ATOM     28  C   UNL     1       5.689  -4.342  -1.314  0.00  0.00    +0.000 A 
ATOM     29  C   UNL     1       6.687  -4.039  -0.537  0.00  0.00    +0.000 A 
ATOM     30  C   UNL     1       7.557  -5.042  -0.088  0.00  0.00    +0.000 A 
ATOM     31  C   UNL     1       7.547  -6.311  -0.717  0.00  0.00    +0.000 A 
BRANCH  31  32
ATOM     32  C   UNL     1       8.678  -7.298  -0.482  0.00  0.00    +0.000 C 
ATOM     33  F   UNL     1       9.827  -6.759  -0.879  0.00  0.00    +0.000 F 
ATOM     34  F   UNL     1       8.750  -7.590   0.814  0.00  0.00    +0.000 F 
ATOM     35  F   UNL     1       8.447  -8.410  -1.174  0.00  0.00    +0.000 F 
ENDBRANCH  31  32
ENDBRANCH  25  26
ENDBRANCH  24  25
ENDBRANCH   3  24
TORSDOF 8
