REMARK  Name = 
REMARK  8 active torsions:
REMARK  status: ('A' for Active; 'I' for Inactive)
REMARK    1  A    between atoms: C_1  and  O_2
REMARK    2  A    between atoms: O_2  and  C_3
REMARK    3  A    between atoms: C_5  and  N_6
REMARK    4  A    between atoms: N_9  and  C_10
REMARK    5  A    between atoms: C_10  and  C_11
REMARK    6  A    between atoms: C_10  and  C_12
REMARK    7  A    between atoms: C_17  and  N_18
REMARK    8  A    between atoms: N_22  and  C_23
REMARK                            x       y       z     vdW  Elec       q    Type
REMARK                         _______ _______ _______ _____ _____    ______ ____
ROOT
ATOM      1  N   UNL     1       3.272  -1.723  -0.551  0.00  0.00    +0.000 N 
ATOM      2  C   UNL     1       4.628  -2.012  -1.039  0.00  0.00    +0.000 A 
ATOM      3  N   UNL     1       4.731  -2.185  -2.362  0.00  0.00    +0.000 NA
ATOM      4  C   UNL     1       5.957  -2.468  -2.865  0.00  0.00    +0.000 A 
ATOM      5  N   UNL     1       6.161  -2.559  -4.318  0.00  0.00    +0.000 N 
ATOM      6  C   UNL     1       7.040  -2.677  -1.975  0.00  0.00    +0.000 A 
ATOM      7  C   UNL     1       8.442  -3.081  -2.014  0.00  0.00    +0.000 A 
ATOM      8  C   UNL     1       8.883  -3.005  -0.736  0.00  0.00    +0.000 A 
ATOM      9  N   UNL     1       7.883  -2.594   0.131  0.00  0.00    +0.000 N 
ATOM     10  C   UNL     1       6.748  -2.417  -0.626  0.00  0.00    +0.000 A 
ATOM     11  N   UNL     1       5.554  -2.065  -0.103  0.00  0.00    +0.000 NA
ATOM     12  H   UNL     1       3.082  -0.851  -0.057  0.00  0.00    +0.000 HD
ATOM     13  H   UNL     1       5.378  -2.408  -4.953  0.00  0.00    +0.000 HD
ATOM     14  H   UNL     1       7.971  -2.451   1.137  0.00  0.00    +0.000 HD
ENDROOT
BRANCH   5  15
ATOM     15  C   UNL     1       7.494  -2.866  -4.855  0.00  0.00    +0.000 A 
ATOM     16  C   UNL     1       8.113  -1.951  -5.690  0.00  0.00    +0.000 A 
ATOM     17  C   UNL     1       9.245  -2.465  -6.366  0.00  0.00    +0.000 A 
ATOM     18  C   UNL     1       9.899  -3.556  -6.009  0.00  0.00    +0.000 A 
ATOM     19  C   UNL     1       9.262  -4.386  -5.128  0.00  0.00    +0.000 A 
ATOM     20  N   UNL     1       9.814  -5.631  -4.837  0.00  0.00    +0.000 NA
ATOM     21  C   UNL     1       9.174  -6.484  -3.941  0.00  0.00    +0.000 A 
ATOM     22  C   UNL     1       7.941  -6.079  -3.317  0.00  0.00    +0.000 A 
ATOM     23  C   UNL     1       7.489  -4.861  -3.531  0.00  0.00    +0.000 A 
ATOM     24  C   UNL     1       8.086  -4.009  -4.527  0.00  0.00    +0.000 A 
ENDBRANCH   5  15
BRANCH   1  30
ATOM     25  C   UNL     1       0.965  -2.424  -0.332  0.00  0.00    +0.000 A 
ATOM     26  C   UNL     1      -0.110  -3.235  -0.658  0.00  0.00    +0.000 A 
ATOM     27  C   UNL     1       0.260  -4.477  -1.225  0.00  0.00    +0.000 A 
ATOM     28  C   UNL     1       1.445  -4.739  -1.746  0.00  0.00    +0.000 A 
ATOM     29  C   UNL     1       2.450  -3.863  -1.443  0.00  0.00    +0.000 A 
ATOM     30  C   UNL     1       2.188  -2.691  -0.776  0.00  0.00    +0.000 A 
BRANCH  27  31
ATOM     31  N   UNL     1      -0.745  -5.550  -1.236  0.00  0.00    +0.000 N 
ATOM     32  C   UNL     1      -2.127  -5.634  -1.723  0.00  0.00    +0.000 C 
ATOM     33  C   UNL     1      -2.321  -6.827  -2.639  0.00  0.00    +0.000 C 
ATOM     34  N   UNL     1      -1.994  -8.070  -1.930  0.00  0.00    +0.000 NA
ATOM     35  C   UNL     1      -0.612  -7.986  -1.443  0.00  0.00    +0.000 C 
ATOM     36  C   UNL     1      -0.418  -6.793  -0.527  0.00  0.00    +0.000 C 
BRANCH  34  37
ATOM     37  C   UNL     1      -2.909  -8.245  -0.793  0.00  0.00    +0.000 C 
ATOM     38  C   UNL     1      -2.766  -7.069   0.159  0.00  0.00    +0.000 C 
ATOM     39  C   UNL     1      -4.340  -8.315  -1.300  0.00  0.00    +0.000 C 
ENDBRANCH  34  37
ENDBRANCH  27  31
BRANCH  25  41
ATOM     40  C   UNL     1       1.096   0.013  -0.026  0.00  0.00    +0.000 C 
ATOM     41  O   UNL     1       0.622  -1.256   0.399  0.00  0.00    +0.000 OA
ENDBRANCH  25  41
ENDBRANCH   1  30
TORSDOF 5
