REMARK  Name = 
REMARK  11 active torsions:
REMARK  status: ('A' for Active; 'I' for Inactive)
REMARK    1  A    between atoms: C_1  and  N_2
REMARK    2  A    between atoms: C_3  and  C_5
REMARK    3  A    between atoms: C_7  and  N_8
REMARK    4  A    between atoms: C_13  and  O_14
REMARK    5  A    between atoms: O_14  and  C_15
REMARK    6  A    between atoms: C_16  and  O_17
REMARK    7  A    between atoms: O_17  and  C_18
REMARK    8  A    between atoms: C_22  and  O_23
REMARK    9  A    between atoms: O_23  and  C_24
REMARK   10  A    between atoms: C_24  and  C_25
REMARK   11  A    between atoms: C_30  and  C_31
REMARK                            x       y       z     vdW  Elec       q    Type
REMARK                         _______ _______ _______ _____ _____    ______ ____
ROOT
ATOM      1  C   UNL     1      -0.608  -1.076   2.197  0.00  0.00    +0.000 A 
ATOM      2  S   UNL     1      -0.763  -1.717   3.789  0.00  0.00    +0.000 S 
ATOM      3  C   UNL     1      -1.382  -0.218   4.363  0.00  0.00    +0.000 A 
ATOM      4  C   UNL     1      -1.476   0.712   3.375  0.00  0.00    +0.000 A 
ATOM      5  C   UNL     1      -1.034   0.231   2.137  0.00  0.00    +0.000 A 
ENDROOT
BRANCH   3   6
ATOM      6  N   UNL     1      -1.766   0.029   5.760  0.00  0.00    +0.000 N 
ATOM      7  C   UNL     1      -0.953   0.001   6.808  0.00  0.00    +0.000 A 
ATOM      8  N   UNL     1      -1.604   0.335   7.905  0.00  0.00    +0.000 NA
ATOM      9  C   UNL     1      -2.880   0.583   7.576  0.00  0.00    +0.000 A 
ATOM     10  C   UNL     1      -4.025   0.970   8.290  0.00  0.00    +0.000 A 
ATOM     11  C   UNL     1      -5.224   1.139   7.587  0.00  0.00    +0.000 A 
ATOM     12  C   UNL     1      -5.267   0.929   6.241  0.00  0.00    +0.000 A 
ATOM     13  C   UNL     1      -4.179   0.558   5.550  0.00  0.00    +0.000 A 
ATOM     14  C   UNL     1      -2.981   0.378   6.172  0.00  0.00    +0.000 A 
BRANCH  11  15
ATOM     15  O   UNL     1      -6.401   1.530   8.279  0.00  0.00    +0.000 OA
ATOM     16  C   UNL     1      -7.619   1.702   7.569  0.00  0.00    +0.000 C 
ENDBRANCH  11  15
BRANCH  12  17
ATOM     17  O   UNL     1      -6.495   1.108   5.552  0.00  0.00    +0.000 OA
ATOM     18  C   UNL     1      -7.659   1.501   6.265  0.00  0.00    +0.000 C 
ENDBRANCH  12  17
ENDBRANCH   3   6
BRANCH   1  21
ATOM     19  C   UNL     1       1.094  -0.034   0.004  0.00  0.00    +0.000 C 
ATOM     20  N   UNL     1       0.604  -1.418  -0.065  0.00  0.00    +0.000 N 
ATOM     21  C   UNL     1      -0.241  -1.954   1.012  0.00  0.00    +0.000 C 
ATOM     22  O   UNL     1      -0.665  -3.151   0.952  0.00  0.00    +0.000 OA
ATOM     23  H   UNL     1       0.850  -2.007  -0.861  0.00  0.00    +0.000 HD
ENDBRANCH   1  21
BRANCH   5  24
ATOM     24  O   UNL     1      -1.025   1.007   0.949  0.00  0.00    +0.000 OA
BRANCH  24  25
ATOM     25  C   UNL     1      -0.560   0.440  -0.267  0.00  0.00    +0.000 C 
BRANCH  25  26
ATOM     26  C   UNL     1       0.888   0.006  -0.102  0.00  0.00    +0.000 A 
ATOM     27  C   UNL     1       1.920   0.973   0.053  0.00  0.00    +0.000 A 
ATOM     28  C   UNL     1       3.260   0.579  -0.094  0.00  0.00    +0.000 A 
ATOM     29  C   UNL     1       3.571  -0.684  -0.098  0.00  0.00    +0.000 A 
ATOM     30  C   UNL     1       2.571  -1.653   0.057  0.00  0.00    +0.000 A 
ATOM     31  C   UNL     1       1.212  -1.288  -0.099  0.00  0.00    +0.000 A 
BRANCH  31  32
ATOM     32  C   UNL     1       0.140  -2.353  -0.260  0.00  0.00    +0.000 C 
ATOM     33  F   UNL     1       0.397  -3.080  -1.344  0.00  0.00    +0.000 F 
ATOM     34  F   UNL     1       0.134  -3.142   0.811  0.00  0.00    +0.000 F 
ATOM     35  F   UNL     1      -1.049  -1.770  -0.389  0.00  0.00    +0.000 F 
ENDBRANCH  31  32
ENDBRANCH  25  26
ENDBRANCH  24  25
ENDBRANCH   5  24
TORSDOF 8
