REMARK  Name = 
REMARK  12 active torsions:
REMARK  status: ('A' for Active; 'I' for Inactive)
REMARK    1  A    between atoms: C_1  and  O_2
REMARK    2  A    between atoms: O_2  and  C_3
REMARK    3  A    between atoms: N_8  and  C_9
REMARK    4  A    between atoms: C_11  and  O_12
REMARK    5  A    between atoms: O_12  and  C_13
REMARK    6  A    between atoms: C_13  and  C_14
REMARK    7  A    between atoms: C_19  and  C_20
REMARK    8  A    between atoms: C_24  and  C_25
REMARK    9  A    between atoms: N_27  and  C_28
REMARK   10  A    between atoms: N_27  and  C_29
REMARK   11  A    between atoms: C_33  and  O_34
REMARK   12  A    between atoms: O_34  and  C_35
REMARK                            x       y       z     vdW  Elec       q    Type
REMARK                         _______ _______ _______ _____ _____    ______ ____
ROOT
ATOM      1  C   UNL     1       3.312   6.108   3.241  0.00  0.00    +0.000 A 
ATOM      2  C   UNL     1       4.460   6.336   2.558  0.00  0.00    +0.000 A 
ATOM      3  C   UNL     1       5.353   6.791   3.470  0.00  0.00    +0.000 A 
ATOM      4  C   UNL     1       4.748   6.817   4.627  0.00  0.00    +0.000 A 
ATOM      5  S   UNL     1       3.537   6.408   4.491  0.00  0.00    +0.000 S 
ENDROOT
BRANCH   1  11
ATOM      6  C   UNL     1       0.931   2.308   0.607  0.00  0.00    +0.000 A 
ATOM      7  C   UNL     1       0.034   3.340   0.908  0.00  0.00    +0.000 A 
ATOM      8  C   UNL     1       0.508   4.450   1.623  0.00  0.00    +0.000 A 
ATOM      9  N   UNL     1      -0.043   5.587   2.073  0.00  0.00    +0.000 NA
ATOM     10  C   UNL     1       0.891   6.281   2.694  0.00  0.00    +0.000 A 
ATOM     11  N   UNL     1       2.048   5.633   2.660  0.00  0.00    +0.000 N 
ATOM     12  C   UNL     1       1.876   4.485   2.014  0.00  0.00    +0.000 A 
ATOM     13  C   UNL     1       2.695   3.446   1.690  0.00  0.00    +0.000 A 
ATOM     14  C   UNL     1       2.232   2.390   1.005  0.00  0.00    +0.000 A 
BRANCH   6  16
ATOM     15  C   UNL     1       1.061  -0.077   0.018  0.00  0.00    +0.000 C 
ATOM     16  O   UNL     1       0.588   1.233  -0.256  0.00  0.00    +0.000 OA
ENDBRANCH   6  16
BRANCH  14  17
ATOM     17  O   UNL     1       3.121   1.330   0.686  0.00  0.00    +0.000 OA
ATOM     18  C   UNL     1       2.651   0.202  -0.038  0.00  0.00    +0.000 C 
ENDBRANCH  14  17
ENDBRANCH   1  11
BRANCH   4  19
ATOM     19  C   UNL     1       5.380   7.265   5.935  0.00  0.00    +0.000 C 
ATOM     20  O   UNL     1       6.590   7.653   5.956  0.00  0.00    +0.000 OA
ATOM     21  N   UNL     1       4.591   7.249   7.175  0.00  0.00    +0.000 N 
ATOM     22  C   UNL     1       3.191   6.801   7.151  0.00  0.00    +0.000 C 
ATOM     23  C   UNL     1       5.202   7.682   8.440  0.00  0.00    +0.000 C 
ENDBRANCH   4  19
BRANCH   3  24
ATOM     24  O   UNL     1       6.697   7.169   3.215  0.00  0.00    +0.000 OA
BRANCH  24  25
ATOM     25  C   UNL     1       7.221   7.086   1.898  0.00  0.00    +0.000 C 
BRANCH  25  26
ATOM     26  C   UNL     1       7.145   5.648   1.412  0.00  0.00    +0.000 A 
ATOM     27  C   UNL     1       6.082   4.779   1.784  0.00  0.00    +0.000 A 
ATOM     28  C   UNL     1       6.219   3.396   1.582  0.00  0.00    +0.000 A 
ATOM     29  C   UNL     1       7.172   2.941   0.823  0.00  0.00    +0.000 A 
ATOM     30  C   UNL     1       8.057   3.829   0.198  0.00  0.00    +0.000 A 
ATOM     31  C   UNL     1       8.117   5.177   0.630  0.00  0.00    +0.000 A 
BRANCH  31  32
ATOM     32  C   UNL     1       9.271   6.072   0.208  0.00  0.00    +0.000 C 
ATOM     33  F   UNL     1      10.417   5.551   0.639  0.00  0.00    +0.000 F 
ATOM     34  F   UNL     1       9.298   6.165  -1.119  0.00  0.00    +0.000 F 
ATOM     35  F   UNL     1       9.108   7.282   0.734  0.00  0.00    +0.000 F 
ENDBRANCH  31  32
ENDBRANCH  25  26
ENDBRANCH  24  25
ENDBRANCH   3  24
TORSDOF 8
