REMARK  Name = 
REMARK  11 active torsions:
REMARK  status: ('A' for Active; 'I' for Inactive)
REMARK    1  A    between atoms: C_1  and  N_2
REMARK    2  A    between atoms: C_3  and  C_5
REMARK    3  A    between atoms: C_7  and  N_8
REMARK    4  A    between atoms: C_13  and  O_14
REMARK    5  A    between atoms: O_14  and  C_15
REMARK    6  A    between atoms: C_16  and  O_17
REMARK    7  A    between atoms: O_17  and  C_18
REMARK    8  A    between atoms: C_22  and  O_23
REMARK    9  A    between atoms: O_23  and  C_24
REMARK   10  A    between atoms: C_24  and  C_25
REMARK   11  A    between atoms: C_30  and  C_31
REMARK                            x       y       z     vdW  Elec       q    Type
REMARK                         _______ _______ _______ _____ _____    ______ ____
ROOT
ATOM      1  C   UNL     1      -0.718   2.108   1.357  0.00  0.00    +0.000 A 
ATOM      2  S   UNL     1      -0.423   3.663   2.036  0.00  0.00    +0.000 S 
ATOM      3  C   UNL     1      -0.860   4.424   0.556  0.00  0.00    +0.000 A 
ATOM      4  C   UNL     1      -1.225   3.524  -0.396  0.00  0.00    +0.000 A 
ATOM      5  C   UNL     1      -1.145   2.201   0.052  0.00  0.00    +0.000 A 
ENDROOT
BRANCH   3   6
ATOM      6  N   UNL     1      -0.840   5.879   0.346  0.00  0.00    +0.000 N 
ATOM      7  C   UNL     1       0.228   6.656   0.469  0.00  0.00    +0.000 A 
ATOM      8  N   UNL     1      -0.086   7.912   0.219  0.00  0.00    +0.000 NA
ATOM      9  C   UNL     1      -1.394   7.968  -0.072  0.00  0.00    +0.000 A 
ATOM     10  C   UNL     1      -2.286   8.996  -0.414  0.00  0.00    +0.000 A 
ATOM     11  C   UNL     1      -3.625   8.666  -0.654  0.00  0.00    +0.000 A 
ATOM     12  C   UNL     1      -4.042   7.372  -0.556  0.00  0.00    +0.000 A 
ATOM     13  C   UNL     1      -3.198   6.382  -0.229  0.00  0.00    +0.000 A 
ATOM     14  C   UNL     1      -1.883   6.635   0.017  0.00  0.00    +0.000 A 
BRANCH  11  15
ATOM     15  O   UNL     1      -4.553   9.684  -1.002  0.00  0.00    +0.000 OA
ATOM     16  C   UNL     1      -5.911   9.352  -1.247  0.00  0.00    +0.000 C 
ENDBRANCH  11  15
BRANCH  12  17
ATOM     17  O   UNL     1      -5.405   7.064  -0.805  0.00  0.00    +0.000 OA
ATOM     18  C   UNL     1      -6.314   8.098  -1.153  0.00  0.00    +0.000 C 
ENDBRANCH  12  17
ENDBRANCH   3   6
BRANCH   1  21
ATOM     19  C   UNL     1       0.984   0.035   0.092  0.00  0.00    +0.000 C 
ATOM     20  N   UNL     1       0.494  -0.178   1.462  0.00  0.00    +0.000 N 
ATOM     21  C   UNL     1      -0.351   0.838   2.106  0.00  0.00    +0.000 C 
ATOM     22  O   UNL     1      -0.775   0.654   3.290  0.00  0.00    +0.000 OA
ATOM     23  H   UNL     1       0.741  -1.030   1.965  0.00  0.00    +0.000 HD
ENDBRANCH   1  21
BRANCH   5  24
ATOM     24  O   UNL     1      -1.468   1.077  -0.753  0.00  0.00    +0.000 OA
BRANCH  24  25
ATOM     25  C   UNL     1      -1.359  -0.234  -0.218  0.00  0.00    +0.000 C 
BRANCH  25  26
ATOM     26  C   UNL     1       0.078  -0.489   0.208  0.00  0.00    +0.000 A 
ATOM     27  C   UNL     1       0.950   0.596   0.504  0.00  0.00    +0.000 A 
ATOM     28  C   UNL     1       2.331   0.361   0.605  0.00  0.00    +0.000 A 
ATOM     29  C   UNL     1       2.779  -0.856   0.702  0.00  0.00    +0.000 A 
ATOM     30  C   UNL     1       1.885  -1.934   0.716  0.00  0.00    +0.000 A 
ATOM     31  C   UNL     1       0.542  -1.735   0.314  0.00  0.00    +0.000 A 
BRANCH  31  32
ATOM     32  C   UNL     1      -0.357  -2.922   0.009  0.00  0.00    +0.000 C 
ATOM     33  F   UNL     1       0.168  -3.631  -0.987  0.00  0.00    +0.000 F 
ATOM     34  F   UNL     1      -0.463  -3.688   1.091  0.00  0.00    +0.000 F 
ATOM     35  F   UNL     1      -1.563  -2.486  -0.345  0.00  0.00    +0.000 F 
ENDBRANCH  31  32
ENDBRANCH  25  26
ENDBRANCH  24  25
ENDBRANCH   5  24
TORSDOF 8
