
 OpenBabel03132514253D

 40 43  0  0  0  0  0  0  0  0999 V2000
    1.0410   -0.0793    0.0451 N   0  0  0  0  0  0  0  0  0  0  0  0
    0.3060   -0.9104    1.0094 C   0  0  0  0  0  0  0  0  0  0  0  0
   -0.9649   -0.9104    1.0094 O   0  0  0  0  0  0  0  0  0  0  0  0
    1.0660   -1.7698    2.0065 C   0  0  0  0  0  0  0  0  0  0  0  0
    0.4941   -3.3350    2.4434 S   0  0  0  0  0  0  0  0  0  0  0  0
    1.7302   -3.4872    3.6303 C   0  0  0  0  0  0  0  0  0  0  0  0
    1.9082   -4.6722    4.4818 N   0  0  0  0  0  0  0  0  0  0  0  0
    2.2774   -5.8749    4.0909 C   0  0  0  0  0  0  0  0  0  0  0  0
    2.4659   -6.6654    5.1373 N   0  0  0  0  0  0  0  0  0  0  0  0
    2.2176   -5.9705    6.2464 C   0  0  0  0  0  0  0  0  0  0  0  0
    2.2446   -6.2544    7.6280 C   0  0  0  0  0  0  0  0  0  0  0  0
    1.9254   -5.2828    8.5103 C   0  0  0  0  0  0  0  0  0  0  0  0
    1.5709   -4.0368    8.0993 C   0  0  0  0  0  0  0  0  0  0  0  0
    1.5323   -3.7057    6.7893 C   0  0  0  0  0  0  0  0  0  0  0  0
    1.8515   -4.6620    5.8233 C   0  0  0  0  0  0  0  0  0  0  0  0
    2.5238   -2.3838    3.6896 C   0  0  0  0  0  0  0  0  0  0  0  0
    2.1529   -1.4016    2.7651 C   0  0  0  0  0  0  0  0  0  0  0  0
    2.8255   -0.1589    2.6248 O   0  0  0  0  0  0  0  0  0  0  0  0
    2.3824    0.7833    1.6593 C   0  0  0  0  0  0  0  0  0  0  0  0
    2.4621    0.1641    0.2734 C   0  0  0  0  0  0  0  0  0  0  0  0
    1.7957    0.8005   -0.8106 C   0  0  0  0  0  0  0  0  0  0  0  0
    1.5651    0.0819   -1.9951 C   0  0  0  0  0  0  0  0  0  0  0  0
    2.1844   -1.0424   -2.2051 C   0  0  0  0  0  0  0  0  0  0  0  0
    3.0903   -1.5333   -1.2555 C   0  0  0  0  0  0  0  0  0  0  0  0
    3.1000   -0.9862    0.0507 C   0  0  0  0  0  0  0  0  0  0  0  0
    4.0357   -1.9042    1.5078 Br  0  0  0  0  0  0  0  0  0  0  0  0
    0.5310    0.4974   -0.6240 H   0  0  0  0  0  0  0  0  0  0  0  0
    2.0610   -0.0793    0.0451 H   0  0  0  0  0  0  0  0  0  0  0  0
    2.4069   -6.1717    3.0710 H   0  0  0  0  0  0  0  0  0  0  0  0
    2.5155   -7.2301    7.9737 H   0  0  0  0  0  0  0  0  0  0  0  0
    1.9521   -5.4992    9.5578 H   0  0  0  0  0  0  0  0  0  0  0  0
    1.3160   -3.2992    8.8312 H   0  0  0  0  0  0  0  0  0  0  0  0
    1.2581   -2.7145    6.4937 H   0  0  0  0  0  0  0  0  0  0  0  0
    3.3431   -2.2787    4.3698 H   0  0  0  0  0  0  0  0  0  0  0  0
    1.3701    1.0595    1.8688 H   0  0  0  0  0  0  0  0  0  0  0  0
    3.0046    1.6529    1.6978 H   0  0  0  0  0  0  0  0  0  0  0  0
    1.4732    1.8171   -0.7243 H   0  0  0  0  0  0  0  0  0  0  0  0
    0.8798    0.4594   -2.7249 H   0  0  0  0  0  0  0  0  0  0  0  0
    2.0018   -1.5931   -3.1041 H   0  0  0  0  0  0  0  0  0  0  0  0
    3.7707   -2.3171   -1.5157 H   0  0  0  0  0  0  0  0  0  0  0  0
  1  2  1  0  0  0  0
  1 27  1  0  0  0  0
  1 28  1  0  0  0  0
  2  3  2  0  0  0  0
  2  4  1  0  0  0  0
  4  5  1  0  0  0  0
  4 17  2  0  0  0  0
  5  6  1  0  0  0  0
  6  7  1  0  0  0  0
  6 16  2  0  0  0  0
  7  8  1  0  0  0  0
  7 15  1  0  0  0  0
  8  9  2  0  0  0  0
  8 29  1  0  0  0  0
  9 10  1  0  0  0  0
 10 11  1  0  0  0  0
 10 15  2  0  0  0  0
 11 12  2  0  0  0  0
 11 30  1  0  0  0  0
 12 13  1  0  0  0  0
 12 31  1  0  0  0  0
 13 14  2  0  0  0  0
 13 32  1  0  0  0  0
 14 15  1  0  0  0  0
 14 33  1  0  0  0  0
 16 17  1  0  0  0  0
 16 34  1  0  0  0  0
 17 18  1  0  0  0  0
 18 19  1  0  0  0  0
 19 20  1  0  0  0  0
 19 35  1  0  0  0  0
 19 36  1  0  0  0  0
 20 21  1  0  0  0  0
 20 25  2  0  0  0  0
 21 22  2  0  0  0  0
 21 37  1  0  0  0  0
 22 23  1  0  0  0  0
 22 38  1  0  0  0  0
 23 24  2  0  0  0  0
 23 39  1  0  0  0  0
 24 25  1  0  0  0  0
 24 40  1  0  0  0  0
 25 26  1  0  0  0  0
M  END
