
 OpenBabel03132512093D

 72 77  0  0  0  0  0  0  0  0999 V2000
    0.9703    0.0878   -0.0376 C   0  0  0  0  0  0  0  0  0  0  0  0
    0.4636   -1.3389   -0.1727 C   0  0  0  0  0  0  0  0  0  0  0  0
    0.9536   -2.1419    0.9569 N   0  0  0  0  0  0  0  0  0  0  0  0
    1.4690   -1.7089    2.0998 C   0  0  0  0  0  0  0  0  0  0  0  0
    1.8443   -0.2648    2.3901 C   0  0  0  0  0  0  0  0  0  0  0  0
    3.4747    0.3655    2.7461 N   0  0  0  0  0  0  0  0  0  0  0  0
    3.0782    2.0467    2.8947 O   0  0  0  0  0  0  0  0  0  0  0  0
    1.7365    2.0704    2.6717 N   0  0  0  0  0  0  0  0  0  0  0  0
    1.0812    0.8948    2.4042 C   0  0  0  0  0  0  0  0  0  0  0  0
   -0.3653    0.8646    2.1441 N   0  0  0  0  0  0  0  0  0  0  0  0
    1.6096   -2.7081    2.9486 N   0  0  0  0  0  0  0  0  0  0  0  0
    1.1822   -3.8300    2.3508 C   0  0  0  0  0  0  0  0  0  0  0  0
    1.0851   -5.1765    2.7343 C   0  0  0  0  0  0  0  0  0  0  0  0
    0.5726   -6.0977    1.8128 N   0  0  0  0  0  0  0  0  0  0  0  0
    0.1802   -5.6844    0.5745 C   0  0  0  0  0  0  0  0  0  0  0  0
   -0.3371   -6.6387   -0.3409 O   0  0  0  0  0  0  0  0  0  0  0  0
   -0.4402   -8.0032    0.0385 C   0  0  0  0  0  0  0  0  0  0  0  0
   -1.2012   -8.3163    1.0886 C   0  0  0  0  0  0  0  0  0  0  0  0
   -1.3285   -9.6836    1.4608 C   0  0  0  0  0  0  0  0  0  0  0  0
   -0.4387  -10.6292    0.9252 C   0  0  0  0  0  0  0  0  0  0  0  0
    0.3059  -10.3174   -0.0946 C   0  0  0  0  0  0  0  0  0  0  0  0
    1.2448  -11.3045   -0.6471 N   0  0  0  0  0  0  0  0  0  0  0  0
    1.3416  -12.6429   -0.0469 C   0  0  0  0  0  0  0  0  0  0  0  0
    2.1533  -13.4962   -0.5246 O   0  0  0  0  0  0  0  0  0  0  0  0
    0.4709  -13.0062    1.1448 C   0  0  0  0  0  0  0  0  0  0  0  0
   -0.9106  -12.6661    1.1423 C   0  0  0  0  0  0  0  0  0  0  0  0
   -1.6480  -12.7705    2.3331 C   0  0  0  0  0  0  0  0  0  0  0  0
   -1.1583  -13.4219    3.3467 C   0  0  0  0  0  0  0  0  0  0  0  0
   -1.9004  -13.5174    4.5536 O   0  0  0  0  0  0  0  0  0  0  0  0
   -1.3666  -14.2283    5.6609 C   0  0  0  0  0  0  0  0  0  0  0  0
   -1.1229  -15.6753    5.2642 C   0  0  0  0  0  0  0  0  0  0  0  0
   -0.1700  -15.7229    4.1459 N   0  0  0  0  0  0  0  0  0  0  0  0
   -0.4877  -14.6437    3.1930 C   0  0  0  0  0  0  0  0  0  0  0  0
   -1.8593  -14.8830    2.6027 C   0  0  0  0  0  0  0  0  0  0  0  0
   -1.9254  -16.1565    1.9612 O   0  0  0  0  0  0  0  0  0  0  0  0
   -1.6502  -17.1915    2.9055 C   0  0  0  0  0  0  0  0  0  0  0  0
   -0.2582  -17.0431    3.4898 C   0  0  0  0  0  0  0  0  0  0  0  0
    0.1006  -14.0295    3.2494 C   0  0  0  0  0  0  0  0  0  0  0  0
    0.9663  -13.6790    2.1849 C   0  0  0  0  0  0  0  0  0  0  0  0
    0.2143   -9.0419   -0.6673 C   0  0  0  0  0  0  0  0  0  0  0  0
    0.2698   -4.4000    0.1978 C   0  0  0  0  0  0  0  0  0  0  0  0
    0.7583   -3.4534    1.0462 C   0  0  0  0  0  0  0  0  0  0  0  0
    0.6136    0.5076    0.8797 H   0  0  0  0  0  0  0  0  0  0  0  0
    0.6136    0.6723   -0.8598 H   0  0  0  0  0  0  0  0  0  0  0  0
    2.0403    0.0878   -0.0376 H   0  0  0  0  0  0  0  0  0  0  0  0
   -0.6064   -1.3389   -0.1727 H   0  0  0  0  0  0  0  0  0  0  0  0
    0.8203   -1.7587   -1.0900 H   0  0  0  0  0  0  0  0  0  0  0  0
   -0.9045    1.7303    2.1601 H   0  0  0  0  0  0  0  0  0  0  0  0
   -0.8298   -0.0220    1.9477 H   0  0  0  0  0  0  0  0  0  0  0  0
    1.3956   -5.4919    3.7085 H   0  0  0  0  0  0  0  0  0  0  0  0
   -1.7069   -7.5524    1.6414 H   0  0  0  0  0  0  0  0  0  0  0  0
   -2.0949   -9.9887    2.1423 H   0  0  0  0  0  0  0  0  0  0  0  0
   -0.3734  -11.6063    1.3562 H   0  0  0  0  0  0  0  0  0  0  0  0
    1.8290  -11.0606   -1.4468 H   0  0  0  0  0  0  0  0  0  0  0  0
   -1.3833  -12.3340    0.2417 H   0  0  0  0  0  0  0  0  0  0  0  0
   -2.6130  -12.3141    2.4063 H   0  0  0  0  0  0  0  0  0  0  0  0
   -0.4424  -13.7801    5.9606 H   0  0  0  0  0  0  0  0  0  0  0  0
   -2.0602  -14.1937    6.4749 H   0  0  0  0  0  0  0  0  0  0  0  0
   -0.7207  -16.2110    6.0986 H   0  0  0  0  0  0  0  0  0  0  0  0
   -2.0471  -16.1235    4.9646 H   0  0  0  0  0  0  0  0  0  0  0  0
    0.2414  -14.6320    2.4100 H   0  0  0  0  0  0  0  0  0  0  0  0
   -0.4775  -13.7029    3.7027 H   0  0  0  0  0  0  0  0  0  0  0  0
   -2.5792  -14.8622    3.3940 H   0  0  0  0  0  0  0  0  0  0  0  0
   -2.0693  -14.1181    1.8845 H   0  0  0  0  0  0  0  0  0  0  0  0
   -1.7085  -18.1341    2.4025 H   0  0  0  0  0  0  0  0  0  0  0  0
   -2.3684  -17.1420    3.6971 H   0  0  0  0  0  0  0  0  0  0  0  0
    0.4770  -17.1207    2.7163 H   0  0  0  0  0  0  0  0  0  0  0  0
   -0.0827  -17.8167    4.2080 H   0  0  0  0  0  0  0  0  0  0  0  0
    0.4059  -14.7540    3.9751 H   0  0  0  0  0  0  0  0  0  0  0  0
    2.0012  -13.9494    2.2144 H   0  0  0  0  0  0  0  0  0  0  0  0
    0.6365   -8.8537   -1.6324 H   0  0  0  0  0  0  0  0  0  0  0  0
   -0.0471   -4.1152   -0.7837 H   0  0  0  0  0  0  0  0  0  0  0  0
  1  2  1  0  0  0  0
  1 43  1  0  0  0  0
  1 44  1  0  0  0  0
  1 45  1  0  0  0  0
  2  3  1  0  0  0  0
  2 46  1  0  0  0  0
  2 47  1  0  0  0  0
  3  4  1  0  0  0  0
  3 42  1  0  0  0  0
  4  5  1  0  0  0  0
  4 11  2  0  0  0  0
  5  6  2  0  0  0  0
  5  9  1  0  0  0  0
  6  7  1  0  0  0  0
  7  8  1  0  0  0  0
  8  9  2  0  0  0  0
  9 10  1  0  0  0  0
 10 48  1  0  0  0  0
 10 49  1  0  0  0  0
 11 12  1  0  0  0  0
 12 13  1  0  0  0  0
 12 42  2  0  0  0  0
 13 14  2  0  0  0  0
 13 50  1  0  0  0  0
 14 15  1  0  0  0  0
 15 16  1  0  0  0  0
 15 41  2  0  0  0  0
 16 17  1  0  0  0  0
 17 18  1  0  0  0  0
 17 40  2  0  0  0  0
 18 19  2  0  0  0  0
 18 51  1  0  0  0  0
 19 20  1  0  0  0  0
 19 52  1  0  0  0  0
 20 21  2  0  0  0  0
 20 53  1  0  0  0  0
 21 22  1  0  0  0  0
 21 40  1  0  0  0  0
 22 23  1  0  0  0  0
 22 54  1  0  0  0  0
 23 24  2  0  0  0  0
 23 25  1  0  0  0  0
 25 26  1  0  0  0  0
 25 39  2  0  0  0  0
 26 27  2  0  0  0  0
 26 55  1  0  0  0  0
 27 28  1  0  0  0  0
 27 56  1  0  0  0  0
 28 29  1  0  0  0  0
 28 38  2  0  0  0  0
 29 30  1  0  0  0  0
 30 31  1  0  0  0  0
 30 57  1  0  0  0  0
 30 58  1  0  0  0  0
 31 32  1  0  0  0  0
 31 59  1  0  0  0  0
 31 60  1  0  0  0  0
 32 33  1  0  0  0  0
 32 37  1  0  0  0  0
 33 34  1  0  0  0  0
 33 61  1  0  0  0  0
 33 62  1  0  0  0  0
 34 35  1  0  0  0  0
 34 63  1  0  0  0  0
 34 64  1  0  0  0  0
 35 36  1  0  0  0  0
 36 37  1  0  0  0  0
 36 65  1  0  0  0  0
 36 66  1  0  0  0  0
 37 67  1  0  0  0  0
 37 68  1  0  0  0  0
 38 39  1  0  0  0  0
 38 69  1  0  0  0  0
 39 70  1  0  0  0  0
 40 71  1  0  0  0  0
 41 42  1  0  0  0  0
 41 72  1  0  0  0  0
M  END
