REMARK  Name = 
REMARK  12 active torsions:
REMARK  status: ('A' for Active; 'I' for Inactive)
REMARK    1  A    between atoms: C_1  and  O_2
REMARK    2  A    between atoms: O_2  and  C_3
REMARK    3  A    between atoms: C_5  and  C_6
REMARK    4  A    between atoms: C_7  and  N_8
REMARK    5  A    between atoms: N_8  and  C_9
REMARK    6  A    between atoms: C_10  and  C_12
REMARK    7  A    between atoms: C_12  and  N_13
REMARK    8  A    between atoms: N_13  and  C_14
REMARK    9  A    between atoms: N_13  and  C_15
REMARK   10  A    between atoms: C_17  and  N_18
REMARK   11  A    between atoms: N_22  and  C_23
REMARK   12  A    between atoms: C_29  and  C_30
REMARK                            x       y       z     vdW  Elec       q    Type
REMARK                         _______ _______ _______ _____ _____    ______ ____
ROOT
ATOM      1  N   UNL     1      -1.501   2.534   2.193  0.00  0.00    +0.000 N 
ATOM      2  C   UNL     1      -2.477   3.234   3.041  0.00  0.00    +0.000 A 
ATOM      3  N   UNL     1      -2.236   4.520   3.319  0.00  0.00    +0.000 NA
ATOM      4  C   UNL     1      -3.160   5.189   4.049  0.00  0.00    +0.000 A 
ATOM      5  N   UNL     1      -3.012   6.632   4.292  0.00  0.00    +0.000 N 
ATOM      6  C   UNL     1      -4.272   4.485   4.575  0.00  0.00    +0.000 A 
ATOM      7  C   UNL     1      -5.414   4.717   5.453  0.00  0.00    +0.000 A 
ATOM      8  C   UNL     1      -6.113   3.558   5.463  0.00  0.00    +0.000 A 
ATOM      9  N   UNL     1      -5.515   2.589   4.672  0.00  0.00    +0.000 N 
ATOM     10  C   UNL     1      -4.373   3.151   4.149  0.00  0.00    +0.000 A 
ATOM     11  N   UNL     1      -3.506   2.476   3.364  0.00  0.00    +0.000 NA
ATOM     12  H   UNL     1      -1.794   2.130   1.304  0.00  0.00    +0.000 HD
ATOM     13  H   UNL     1      -2.210   7.133   3.911  0.00  0.00    +0.000 HD
ATOM     14  H   UNL     1      -5.855   1.641   4.510  0.00  0.00    +0.000 HD
ENDROOT
BRANCH   1  21
ATOM     15  C   UNL     1       0.813   1.760   1.829  0.00  0.00    +0.000 A 
ATOM     16  C   UNL     1       2.121   1.637   2.264  0.00  0.00    +0.000 A 
ATOM     17  C   UNL     1       2.546   2.171   3.473  0.00  0.00    +0.000 A 
ATOM     18  C   UNL     1       3.965   1.995   3.932  0.00  0.00    +0.000 C 
ATOM     19  C   UNL     1       1.594   2.838   4.252  0.00  0.00    +0.000 A 
ATOM     20  C   UNL     1       0.297   2.971   3.845  0.00  0.00    +0.000 A 
ATOM     21  C   UNL     1      -0.101   2.417   2.627  0.00  0.00    +0.000 A 
BRANCH  19  22
ATOM     22  N   UNL     1       2.000   3.410   5.543  0.00  0.00    +0.000 N 
ATOM     23  C   UNL     1       1.016   4.115   6.377  0.00  0.00    +0.000 C 
ATOM     24  C   UNL     1       3.391   3.279   6.000  0.00  0.00    +0.000 C 
ATOM     25  O   UNL     1       4.242   2.670   5.279  0.00  0.00    +0.000 OA
BRANCH  24  26
ATOM     26  C   UNL     1       3.811   3.870   7.336  0.00  0.00    +0.000 C 
BRANCH  26  27
ATOM     27  N   UNL     1       3.578   5.322   7.324  0.00  0.00    +0.000 NA
ATOM     28  C   UNL     1       3.984   5.894   8.616  0.00  0.00    +0.000 C 
ATOM     29  C   UNL     1       4.366   5.936   6.246  0.00  0.00    +0.000 C 
ENDBRANCH  26  27
ENDBRANCH  24  26
ENDBRANCH  19  22
BRANCH  15  31
ATOM     30  C   UNL     1       0.943   0.064   0.052  0.00  0.00    +0.000 C 
ATOM     31  O   UNL     1       0.470   1.317   0.524  0.00  0.00    +0.000 OA
ENDBRANCH  15  31
ENDBRANCH   1  21
BRANCH   5  32
ATOM     32  C   UNL     1      -4.019   7.351   5.085  0.00  0.00    +0.000 A 
ATOM     33  C   UNL     1      -4.773   8.348   4.535  0.00  0.00    +0.000 A 
ATOM     34  C   UNL     1      -5.755   8.971   5.304  0.00  0.00    +0.000 A 
ATOM     35  C   UNL     1      -5.982   8.568   6.605  0.00  0.00    +0.000 A 
ATOM     36  C   UNL     1      -5.204   7.556   7.141  0.00  0.00    +0.000 A 
ATOM     37  F   UNL     1      -5.410   7.182   8.400  0.00  0.00    +0.000 F 
ATOM     38  C   UNL     1      -4.214   6.921   6.403  0.00  0.00    +0.000 A 
BRANCH  38  39
ATOM     39  C   UNL     1      -3.367   5.848   7.022  0.00  0.00    +0.000 C 
ATOM     40  N   UNL     1      -2.295   5.215   6.239  0.00  0.00    +0.000 N 
ATOM     41  O   UNL     1      -3.576   5.485   8.222  0.00  0.00    +0.000 OA
ATOM     42  H   UNL     1      -1.719   4.486   6.660  0.00  0.00    +0.000 HD
ATOM     43  H   UNL     1      -2.127   5.506   5.276  0.00  0.00    +0.000 HD
ENDBRANCH  38  39
ENDBRANCH   5  32
TORSDOF 7
