
 OpenBabel03132514253D

 60 64  0  0  0  0  0  0  0  0999 V2000
    0.9181   -0.0144    0.0556 C   0  0  0  0  0  0  0  0  0  0  0  0
    0.4115   -0.5918   -1.2560 C   0  0  0  0  0  0  0  0  0  0  0  0
    0.9015   -1.9695   -1.4067 N   0  0  0  0  0  0  0  0  0  0  0  0
    2.1260   -2.3345   -1.7628 C   0  0  0  0  0  0  0  0  0  0  0  0
    3.2577   -1.3732   -2.0874 C   0  0  0  0  0  0  0  0  0  0  0  0
    4.1765   -1.2265   -3.6095 N   0  0  0  0  0  0  0  0  0  0  0  0
    5.2555    0.0473   -3.1416 O   0  0  0  0  0  0  0  0  0  0  0  0
    4.8849    0.3135   -1.8601 N   0  0  0  0  0  0  0  0  0  0  0  0
    3.8560   -0.4001   -1.2985 C   0  0  0  0  0  0  0  0  0  0  0  0
    3.4071   -0.1452    0.0779 N   0  0  0  0  0  0  0  0  0  0  0  0
    2.2226   -3.6492   -1.7955 N   0  0  0  0  0  0  0  0  0  0  0  0
    1.0319   -4.1661   -1.4584 C   0  0  0  0  0  0  0  0  0  0  0  0
    0.5253   -5.4675   -1.3194 C   0  0  0  0  0  0  0  0  0  0  0  0
   -0.8130   -5.6258   -0.9396 N   0  0  0  0  0  0  0  0  0  0  0  0
   -1.5962   -4.5334   -0.7127 C   0  0  0  0  0  0  0  0  0  0  0  0
   -2.9499   -4.7215   -0.3275 O   0  0  0  0  0  0  0  0  0  0  0  0
   -3.4712   -6.0345   -0.1833 C   0  0  0  0  0  0  0  0  0  0  0  0
   -2.9373   -6.8841    0.6959 C   0  0  0  0  0  0  0  0  0  0  0  0
   -3.4894   -8.1903    0.8105 C   0  0  0  0  0  0  0  0  0  0  0  0
   -4.3638   -8.6584   -0.1839 C   0  0  0  0  0  0  0  0  0  0  0  0
   -4.8768   -7.8276   -1.0430 C   0  0  0  0  0  0  0  0  0  0  0  0
   -5.7830   -8.3207   -2.0901 N   0  0  0  0  0  0  0  0  0  0  0  0
   -6.1089   -9.7522   -2.1657 C   0  0  0  0  0  0  0  0  0  0  0  0
   -6.8923  -10.1786   -3.0710 O   0  0  0  0  0  0  0  0  0  0  0  0
   -5.5088  -10.7224   -1.1612 C   0  0  0  0  0  0  0  0  0  0  0  0
   -5.4381  -10.4869    0.2401 C   0  0  0  0  0  0  0  0  0  0  0  0
   -4.7365  -11.3895    1.0559 C   0  0  0  0  0  0  0  0  0  0  0  0
   -4.3943  -12.5553    0.5920 C   0  0  0  0  0  0  0  0  0  0  0  0
   -3.6502  -13.4947    1.4434 N   0  0  0  0  0  0  0  0  0  0  0  0
   -3.2934  -13.1161    2.8182 C   0  0  0  0  0  0  0  0  0  0  0  0
   -3.2629  -14.8126    0.9199 C   0  0  0  0  0  0  0  0  0  0  0  0
   -4.7339  -12.9171   -0.7185 C   0  0  0  0  0  0  0  0  0  0  0  0
   -5.1614  -11.9219   -1.6307 C   0  0  0  0  0  0  0  0  0  0  0  0
   -4.5668   -6.4629   -0.9716 C   0  0  0  0  0  0  0  0  0  0  0  0
   -1.1220   -3.2854   -0.8437 C   0  0  0  0  0  0  0  0  0  0  0  0
    0.1707   -3.0618   -1.2092 C   0  0  0  0  0  0  0  0  0  0  0  0
    0.5615   -0.6108    0.8693 H   0  0  0  0  0  0  0  0  0  0  0  0
    0.5615    0.9884    0.1653 H   0  0  0  0  0  0  0  0  0  0  0  0
    1.9881   -0.0144    0.0556 H   0  0  0  0  0  0  0  0  0  0  0  0
   -0.6585   -0.5918   -1.2560 H   0  0  0  0  0  0  0  0  0  0  0  0
    0.7681    0.0046   -2.0696 H   0  0  0  0  0  0  0  0  0  0  0  0
    3.8628    0.5754    0.6377 H   0  0  0  0  0  0  0  0  0  0  0  0
    2.6400   -0.6891    0.4730 H   0  0  0  0  0  0  0  0  0  0  0  0
    1.1475   -6.3192   -1.4996 H   0  0  0  0  0  0  0  0  0  0  0  0
   -2.1084   -6.5882    1.3044 H   0  0  0  0  0  0  0  0  0  0  0  0
   -3.2408   -8.8102    1.6465 H   0  0  0  0  0  0  0  0  0  0  0  0
   -4.6079   -9.6990   -0.2347 H   0  0  0  0  0  0  0  0  0  0  0  0
   -6.1857   -7.6697   -2.7641 H   0  0  0  0  0  0  0  0  0  0  0  0
   -5.9150   -9.6301    0.6684 H   0  0  0  0  0  0  0  0  0  0  0  0
   -4.4835  -11.1180    2.0595 H   0  0  0  0  0  0  0  0  0  0  0  0
   -3.7361  -13.8072    3.5048 H   0  0  0  0  0  0  0  0  0  0  0  0
   -2.2293  -13.1356    2.9288 H   0  0  0  0  0  0  0  0  0  0  0  0
   -3.6551  -12.1299    3.0219 H   0  0  0  0  0  0  0  0  0  0  0  0
   -4.1404  -15.3570    0.6398 H   0  0  0  0  0  0  0  0  0  0  0  0
   -2.6336  -14.6855    0.0639 H   0  0  0  0  0  0  0  0  0  0  0  0
   -2.7327  -15.3545    1.6750 H   0  0  0  0  0  0  0  0  0  0  0  0
   -4.6706  -13.9394   -1.0281 H   0  0  0  0  0  0  0  0  0  0  0  0
   -5.2052  -12.1286   -2.6796 H   0  0  0  0  0  0  0  0  0  0  0  0
   -5.1545   -5.7488   -1.5097 H   0  0  0  0  0  0  0  0  0  0  0  0
   -1.7688   -2.4535   -0.6583 H   0  0  0  0  0  0  0  0  0  0  0  0
  1  2  1  0  0  0  0
  1 37  1  0  0  0  0
  1 38  1  0  0  0  0
  1 39  1  0  0  0  0
  2  3  1  0  0  0  0
  2 40  1  0  0  0  0
  2 41  1  0  0  0  0
  3  4  1  0  0  0  0
  3 36  1  0  0  0  0
  4  5  1  0  0  0  0
  4 11  2  0  0  0  0
  5  6  2  0  0  0  0
  5  9  1  0  0  0  0
  6  7  1  0  0  0  0
  7  8  1  0  0  0  0
  8  9  2  0  0  0  0
  9 10  1  0  0  0  0
 10 42  1  0  0  0  0
 10 43  1  0  0  0  0
 11 12  1  0  0  0  0
 12 13  1  0  0  0  0
 12 36  2  0  0  0  0
 13 14  2  0  0  0  0
 13 44  1  0  0  0  0
 14 15  1  0  0  0  0
 15 16  1  0  0  0  0
 15 35  2  0  0  0  0
 16 17  1  0  0  0  0
 17 18  1  0  0  0  0
 17 34  2  0  0  0  0
 18 19  2  0  0  0  0
 18 45  1  0  0  0  0
 19 20  1  0  0  0  0
 19 46  1  0  0  0  0
 20 21  2  0  0  0  0
 20 47  1  0  0  0  0
 21 22  1  0  0  0  0
 21 34  1  0  0  0  0
 22 23  1  0  0  0  0
 22 48  1  0  0  0  0
 23 24  2  0  0  0  0
 23 25  1  0  0  0  0
 25 26  1  0  0  0  0
 25 33  2  0  0  0  0
 26 27  2  0  0  0  0
 26 49  1  0  0  0  0
 27 28  1  0  0  0  0
 27 50  1  0  0  0  0
 28 29  1  0  0  0  0
 28 32  2  0  0  0  0
 29 30  1  0  0  0  0
 29 31  1  0  0  0  0
 30 51  1  0  0  0  0
 30 52  1  0  0  0  0
 30 53  1  0  0  0  0
 31 54  1  0  0  0  0
 31 55  1  0  0  0  0
 31 56  1  0  0  0  0
 32 33  1  0  0  0  0
 32 57  1  0  0  0  0
 33 58  1  0  0  0  0
 34 59  1  0  0  0  0
 35 36  1  0  0  0  0
 35 60  1  0  0  0  0
M  END
