REMARK  Name = 
REMARK  11 active torsions:
REMARK  status: ('A' for Active; 'I' for Inactive)
REMARK    1  A    between atoms: C_1  and  O_2
REMARK    2  A    between atoms: O_2  and  C_3
REMARK    3  A    between atoms: C_5  and  C_6
REMARK    4  A    between atoms: C_7  and  N_8
REMARK    5  A    between atoms: C_9  and  C_11
REMARK    6  A    between atoms: C_11  and  N_12
REMARK    7  A    between atoms: N_12  and  C_13
REMARK    8  A    between atoms: N_12  and  C_14
REMARK    9  A    between atoms: C_16  and  N_17
REMARK   10  A    between atoms: N_21  and  C_22
REMARK   11  A    between atoms: C_28  and  C_29
REMARK                            x       y       z     vdW  Elec       q    Type
REMARK                         _______ _______ _______ _____ _____    ______ ____
ROOT
ATOM      1  N   UNL     1      -1.408   2.280  -2.351  0.00  0.00    +0.000 N 
ATOM      2  C   UNL     1      -2.395   3.233  -2.880  0.00  0.00    +0.000 A 
ATOM      3  N   UNL     1      -2.197   3.685  -4.122  0.00  0.00    +0.000 NA
ATOM      4  C   UNL     1      -3.070   4.602  -4.605  0.00  0.00    +0.000 A 
ATOM      5  N   UNL     1      -2.976   5.056  -6.000  0.00  0.00    +0.000 N 
ATOM      6  C   UNL     1      -4.075   5.119  -3.749  0.00  0.00    +0.000 A 
ATOM      7  C   UNL     1      -5.124   6.134  -3.762  0.00  0.00    +0.000 A 
ATOM      8  C   UNL     1      -5.752   6.030  -2.567  0.00  0.00    +0.000 A 
ATOM      9  N   UNL     1      -5.192   5.039  -1.776  0.00  0.00    +0.000 N 
ATOM     10  C   UNL     1      -4.149   4.499  -2.492  0.00  0.00    +0.000 A 
ATOM     11  N   UNL     1      -3.338   3.533  -2.009  0.00  0.00    +0.000 NA
ATOM     12  H   UNL     1      -1.703   1.346  -2.065  0.00  0.00    +0.000 HD
ATOM     13  H   UNL     1      -2.251   4.680  -6.611  0.00  0.00    +0.000 HD
ATOM     14  H   UNL     1      -5.495   4.763  -0.842  0.00  0.00    +0.000 HD
ENDROOT
BRANCH   1  21
ATOM     15  C   UNL     1       0.928   1.776  -1.737  0.00  0.00    +0.000 A 
ATOM     16  C   UNL     1       2.248   2.172  -1.609  0.00  0.00    +0.000 A 
ATOM     17  C   UNL     1       2.675   3.438  -1.984  0.00  0.00    +0.000 A 
ATOM     18  C   UNL     1       4.108   3.848  -1.806  0.00  0.00    +0.000 C 
ATOM     19  C   UNL     1       1.712   4.317  -2.491  0.00  0.00    +0.000 A 
ATOM     20  C   UNL     1       0.403   3.952  -2.625  0.00  0.00    +0.000 A 
ATOM     21  C   UNL     1       0.003   2.674  -2.234  0.00  0.00    +0.000 A 
BRANCH  19  22
ATOM     22  N   UNL     1       2.120   5.672  -2.891  0.00  0.00    +0.000 N 
ATOM     23  C   UNL     1       1.125   6.612  -3.426  0.00  0.00    +0.000 C 
ATOM     24  O   UNL     1       1.478   7.783  -3.772  0.00  0.00    +0.000 OA
ATOM     25  H   UNL     1       3.095   5.959  -2.797  0.00  0.00    +0.000 HD
BRANCH  23  26
ATOM     26  C   UNL     1      -0.326   6.183  -3.567  0.00  0.00    +0.000 C 
BRANCH  26  27
ATOM     27  N   UNL     1      -0.411   5.025  -4.468  0.00  0.00    +0.000 NA
ATOM     28  C   UNL     1      -1.814   4.611  -4.604  0.00  0.00    +0.000 C 
ATOM     29  C   UNL     1       0.122   5.393  -5.788  0.00  0.00    +0.000 C 
ENDBRANCH  26  27
ENDBRANCH  23  26
ENDBRANCH  19  22
BRANCH  15  31
ATOM     30  C   UNL     1       1.058   0.074   0.034  0.00  0.00    +0.000 C 
ATOM     31  O   UNL     1       0.585   0.491  -1.238  0.00  0.00    +0.000 OA
ENDBRANCH  15  31
ENDBRANCH   1  21
BRANCH   5  32
ATOM     32  C   UNL     1      -3.928   6.051  -6.515  0.00  0.00    +0.000 A 
ATOM     33  C   UNL     1      -4.723   5.784  -7.593  0.00  0.00    +0.000 A 
ATOM     34  C   UNL     1      -5.570   6.778  -8.085  0.00  0.00    +0.000 A 
ATOM     35  C   UNL     1      -5.622   8.014  -7.473  0.00  0.00    +0.000 A 
ATOM     36  C   UNL     1      -4.805   8.260  -6.383  0.00  0.00    +0.000 A 
ATOM     37  F   UNL     1      -4.843   9.458  -5.806  0.00  0.00    +0.000 F 
ATOM     38  C   UNL     1      -3.948   7.295  -5.874  0.00  0.00    +0.000 A 
BRANCH  38  39
ATOM     39  C   UNL     1      -3.052   7.602  -4.709  0.00  0.00    +0.000 C 
ATOM     40  N   UNL     1      -2.119   6.581  -4.210  0.00  0.00    +0.000 N 
ATOM     41  O   UNL     1      -3.101   8.744  -4.154  0.00  0.00    +0.000 OA
ATOM     42  H   UNL     1      -1.511   6.790  -3.418  0.00  0.00    +0.000 HD
ATOM     43  H   UNL     1      -2.080   5.664  -4.655  0.00  0.00    +0.000 HD
ENDBRANCH  38  39
ENDBRANCH   5  32
TORSDOF 7
