REMARK  Name = 
REMARK  11 active torsions:
REMARK  status: ('A' for Active; 'I' for Inactive)
REMARK    1  A    between atoms: C_1  and  C_2
REMARK    2  A    between atoms: C_2  and  N_3
REMARK    3  A    between atoms: C_4  and  C_5
REMARK    4  A    between atoms: C_15  and  O_16
REMARK    5  A    between atoms: O_16  and  C_17
REMARK    6  A    between atoms: C_21  and  N_22
REMARK    7  A    between atoms: C_23  and  C_25
REMARK    8  A    between atoms: C_28  and  O_29
REMARK    9  A    between atoms: O_29  and  C_30
REMARK   10  A    between atoms: C_30  and  C_31
REMARK   11  A    between atoms: C_31  and  N_32
REMARK                            x       y       z     vdW  Elec       q    Type
REMARK                         _______ _______ _______ _____ _____    ______ ____
ROOT
ATOM      1  C   UNL     1      -0.440  -8.003   0.038  0.00  0.00    +0.000 A 
ATOM      2  C   UNL     1      -1.201  -8.316   1.089  0.00  0.00    +0.000 A 
ATOM      3  C   UNL     1      -1.329  -9.684   1.461  0.00  0.00    +0.000 A 
ATOM      4  C   UNL     1      -0.439 -10.629   0.925  0.00  0.00    +0.000 A 
ATOM      5  C   UNL     1       0.306 -10.317  -0.095  0.00  0.00    +0.000 A 
ATOM      6  C   UNL     1       0.214  -9.042  -0.667  0.00  0.00    +0.000 A 
ENDROOT
BRANCH   5   7
ATOM      7  N   UNL     1       1.245 -11.305  -0.647  0.00  0.00    +0.000 N 
ATOM      8  C   UNL     1       1.342 -12.643  -0.047  0.00  0.00    +0.000 C 
ATOM      9  O   UNL     1       2.153 -13.496  -0.525  0.00  0.00    +0.000 OA
ATOM     10  H   UNL     1       1.829 -11.061  -1.447  0.00  0.00    +0.000 HD
BRANCH   8  11
ATOM     11  C   UNL     1       0.471 -13.006   1.145  0.00  0.00    +0.000 A 
ATOM     12  C   UNL     1      -0.911 -12.666   1.142  0.00  0.00    +0.000 A 
ATOM     13  C   UNL     1      -1.648 -12.771   2.333  0.00  0.00    +0.000 A 
ATOM     14  C   UNL     1      -1.158 -13.422   3.347  0.00  0.00    +0.000 A 
ATOM     15  C   UNL     1       0.101 -14.030   3.249  0.00  0.00    +0.000 A 
ATOM     16  C   UNL     1       0.966 -13.679   2.185  0.00  0.00    +0.000 A 
BRANCH  14  17
ATOM     17  O   UNL     1      -1.900 -13.517   4.554  0.00  0.00    +0.000 OA
BRANCH  17  18
ATOM     18  C   UNL     1      -1.367 -14.228   5.661  0.00  0.00    +0.000 C 
BRANCH  18  19
ATOM     19  C   UNL     1      -1.123 -15.675   5.264  0.00  0.00    +0.000 C 
BRANCH  19  20
ATOM     20  N   UNL     1      -0.170 -15.723   4.146  0.00  0.00    +0.000 NA
ATOM     21  C   UNL     1      -0.488 -14.644   3.193  0.00  0.00    +0.000 C 
ATOM     22  C   UNL     1      -1.859 -14.883   2.603  0.00  0.00    +0.000 C 
ATOM     23  O   UNL     1      -1.925 -16.157   1.961  0.00  0.00    +0.000 OA
ATOM     24  C   UNL     1      -1.650 -17.192   2.905  0.00  0.00    +0.000 C 
ATOM     25  C   UNL     1      -0.258 -17.043   3.490  0.00  0.00    +0.000 C 
ENDBRANCH  19  20
ENDBRANCH  18  19
ENDBRANCH  17  18
ENDBRANCH  14  17
ENDBRANCH   8  11
ENDBRANCH   5   7
BRANCH   1  26
ATOM     26  O   UNL     1      -0.337  -6.639  -0.341  0.00  0.00    +0.000 OA
BRANCH  26  33
ATOM     27  N   UNL     1       0.954  -2.142   0.957  0.00  0.00    +0.000 N 
ATOM     28  C   UNL     1       1.469  -1.709   2.100  0.00  0.00    +0.000 A 
ATOM     29  N   UNL     1       1.610  -2.708   2.949  0.00  0.00    +0.000 NA
ATOM     30  C   UNL     1       1.182  -3.830   2.351  0.00  0.00    +0.000 A 
ATOM     31  C   UNL     1       1.085  -5.176   2.734  0.00  0.00    +0.000 A 
ATOM     32  N   UNL     1       0.573  -6.098   1.813  0.00  0.00    +0.000 NA
ATOM     33  C   UNL     1       0.180  -5.684   0.575  0.00  0.00    +0.000 A 
ATOM     34  C   UNL     1       0.270  -4.400   0.198  0.00  0.00    +0.000 A 
ATOM     35  C   UNL     1       0.758  -3.453   1.046  0.00  0.00    +0.000 A 
BRANCH  28  36
ATOM     36  C   UNL     1       1.844  -0.265   2.390  0.00  0.00    +0.000 A 
ATOM     37  N   UNL     1       3.475   0.365   2.746  0.00  0.00    +0.000 NA
ATOM     38  O   UNL     1       3.078   2.047   2.895  0.00  0.00    +0.000 OA
ATOM     39  N   UNL     1       1.736   2.070   2.672  0.00  0.00    +0.000 NA
ATOM     40  C   UNL     1       1.081   0.895   2.404  0.00  0.00    +0.000 A 
ATOM     41  N   UNL     1      -0.365   0.865   2.144  0.00  0.00    +0.000 N 
ATOM     42  H   UNL     1      -0.904   1.730   2.160  0.00  0.00    +0.000 HD
ATOM     43  H   UNL     1      -0.830  -0.022   1.948  0.00  0.00    +0.000 HD
ENDBRANCH  28  36
BRANCH  27  45
ATOM     44  C   UNL     1       0.970   0.088  -0.038  0.00  0.00    +0.000 C 
ATOM     45  C   UNL     1       0.464  -1.339  -0.173  0.00  0.00    +0.000 C 
ENDBRANCH  27  45
ENDBRANCH  26  33
ENDBRANCH   1  26
TORSDOF 10
