
 OpenBabel03132512093D

 64 67  0  0  0  0  0  0  0  0999 V2000
    1.0580    0.0740    0.0340 C   0  0  0  0  0  0  0  0  0  0  0  0
    0.5847    0.4915   -1.2380 O   0  0  0  0  0  0  0  0  0  0  0  0
    0.9277    1.7761   -1.7367 C   0  0  0  0  0  0  0  0  0  0  0  0
    2.2480    2.1718   -1.6091 C   0  0  0  0  0  0  0  0  0  0  0  0
    2.6752    3.4380   -1.9841 C   0  0  0  0  0  0  0  0  0  0  0  0
    4.1084    3.8475   -1.8056 C   0  0  0  0  0  0  0  0  0  0  0  0
    1.7121    4.3174   -2.4913 C   0  0  0  0  0  0  0  0  0  0  0  0
    2.1205    5.6718   -2.8909 N   0  0  0  0  0  0  0  0  0  0  0  0
    1.1252    6.6118   -3.4262 C   0  0  0  0  0  0  0  0  0  0  0  0
    1.4783    7.7827   -3.7718 O   0  0  0  0  0  0  0  0  0  0  0  0
   -0.3264    6.1833   -3.5665 C   0  0  0  0  0  0  0  0  0  0  0  0
   -0.4106    5.0253   -4.4682 N   0  0  0  0  0  0  0  0  0  0  0  0
   -1.8144    4.6110   -4.6038 C   0  0  0  0  0  0  0  0  0  0  0  0
    0.1217    5.3926   -5.7883 C   0  0  0  0  0  0  0  0  0  0  0  0
    0.4028    3.9517   -2.6252 C   0  0  0  0  0  0  0  0  0  0  0  0
    0.0034    2.6735   -2.2337 C   0  0  0  0  0  0  0  0  0  0  0  0
   -1.4082    2.2802   -2.3508 N   0  0  0  0  0  0  0  0  0  0  0  0
   -2.3951    3.2328   -2.8795 C   0  0  0  0  0  0  0  0  0  0  0  0
   -2.1968    3.6854   -4.1223 N   0  0  0  0  0  0  0  0  0  0  0  0
   -3.0701    4.6022   -4.6047 C   0  0  0  0  0  0  0  0  0  0  0  0
   -2.9764    5.0557   -5.9998 N   0  0  0  0  0  0  0  0  0  0  0  0
   -3.9281    6.0507   -6.5148 C   0  0  0  0  0  0  0  0  0  0  0  0
   -4.7230    5.7837   -7.5931 C   0  0  0  0  0  0  0  0  0  0  0  0
   -5.5698    6.7777   -8.0848 C   0  0  0  0  0  0  0  0  0  0  0  0
   -5.6222    8.0143   -7.4726 C   0  0  0  0  0  0  0  0  0  0  0  0
   -4.8052    8.2604   -6.3827 C   0  0  0  0  0  0  0  0  0  0  0  0
   -4.8426    9.4581   -5.8057 F   0  0  0  0  0  0  0  0  0  0  0  0
   -3.9480    7.2945   -5.8739 C   0  0  0  0  0  0  0  0  0  0  0  0
   -3.0524    7.6016   -4.7089 C   0  0  0  0  0  0  0  0  0  0  0  0
   -2.1194    6.5810   -4.2100 N   0  0  0  0  0  0  0  0  0  0  0  0
   -3.1009    8.7439   -4.1539 O   0  0  0  0  0  0  0  0  0  0  0  0
   -4.0751    5.1192   -3.7493 C   0  0  0  0  0  0  0  0  0  0  0  0
   -5.1237    6.1337   -3.7618 C   0  0  0  0  0  0  0  0  0  0  0  0
   -5.7520    6.0297   -2.5669 C   0  0  0  0  0  0  0  0  0  0  0  0
   -5.1919    5.0387   -1.7755 N   0  0  0  0  0  0  0  0  0  0  0  0
   -4.1489    4.4987   -2.4919 C   0  0  0  0  0  0  0  0  0  0  0  0
   -3.3379    3.5333   -2.0089 N   0  0  0  0  0  0  0  0  0  0  0  0
    0.7013   -0.9134    0.2408 H   0  0  0  0  0  0  0  0  0  0  0  0
    0.7014    0.7468    0.7857 H   0  0  0  0  0  0  0  0  0  0  0  0
    2.1280    0.0740    0.0340 H   0  0  0  0  0  0  0  0  0  0  0  0
    2.9606    1.4808   -1.2094 H   0  0  0  0  0  0  0  0  0  0  0  0
    4.5186    4.1319   -2.7520 H   0  0  0  0  0  0  0  0  0  0  0  0
    4.1613    4.6759   -1.1305 H   0  0  0  0  0  0  0  0  0  0  0  0
    4.6670    3.0264   -1.4071 H   0  0  0  0  0  0  0  0  0  0  0  0
    3.0946    5.9594   -2.7968 H   0  0  0  0  0  0  0  0  0  0  0  0
   -0.7139    5.9160   -2.6056 H   0  0  0  0  0  0  0  0  0  0  0  0
   -0.8996    6.9918   -3.9699 H   0  0  0  0  0  0  0  0  0  0  0  0
   -2.3876    5.4195   -5.0072 H   0  0  0  0  0  0  0  0  0  0  0  0
   -1.8757    3.7681   -5.2601 H   0  0  0  0  0  0  0  0  0  0  0  0
   -2.2018    4.3437   -3.6429 H   0  0  0  0  0  0  0  0  0  0  0  0
   -0.4515    6.2011   -6.1917 H   0  0  0  0  0  0  0  0  0  0  0  0
    1.1435    5.6942   -5.6896 H   0  0  0  0  0  0  0  0  0  0  0  0
    0.0604    4.5497   -6.4446 H   0  0  0  0  0  0  0  0  0  0  0  0
   -0.3109    4.6401   -3.0272 H   0  0  0  0  0  0  0  0  0  0  0  0
   -1.7028    1.3464   -2.0653 H   0  0  0  0  0  0  0  0  0  0  0  0
   -2.2510    4.6800   -6.6106 H   0  0  0  0  0  0  0  0  0  0  0  0
   -4.6966    4.8199   -8.0571 H   0  0  0  0  0  0  0  0  0  0  0  0
   -6.1815    6.5807   -8.9403 H   0  0  0  0  0  0  0  0  0  0  0  0
   -6.2851    8.7717   -7.8356 H   0  0  0  0  0  0  0  0  0  0  0  0
   -1.5109    6.7897   -3.4184 H   0  0  0  0  0  0  0  0  0  0  0  0
   -2.0805    5.6643   -4.6554 H   0  0  0  0  0  0  0  0  0  0  0  0
   -5.3496    6.8186   -4.5523 H   0  0  0  0  0  0  0  0  0  0  0  0
   -6.5802    6.6385   -2.2696 H   0  0  0  0  0  0  0  0  0  0  0  0
   -5.4950    4.7628   -0.8415 H   0  0  0  0  0  0  0  0  0  0  0  0
  1  2  1  0  0  0  0
  1 38  1  0  0  0  0
  1 39  1  0  0  0  0
  1 40  1  0  0  0  0
  2  3  1  0  0  0  0
  3  4  1  0  0  0  0
  3 16  2  0  0  0  0
  4  5  2  0  0  0  0
  4 41  1  0  0  0  0
  5  6  1  0  0  0  0
  5  7  1  0  0  0  0
  6 42  1  0  0  0  0
  6 43  1  0  0  0  0
  6 44  1  0  0  0  0
  7  8  1  0  0  0  0
  7 15  2  0  0  0  0
  8  9  1  0  0  0  0
  8 45  1  0  0  0  0
  9 10  2  0  0  0  0
  9 11  1  0  0  0  0
 11 12  1  0  0  0  0
 11 46  1  0  0  0  0
 11 47  1  0  0  0  0
 12 13  1  0  0  0  0
 12 14  1  0  0  0  0
 13 48  1  0  0  0  0
 13 49  1  0  0  0  0
 13 50  1  0  0  0  0
 14 51  1  0  0  0  0
 14 52  1  0  0  0  0
 14 53  1  0  0  0  0
 15 16  1  0  0  0  0
 15 54  1  0  0  0  0
 16 17  1  0  0  0  0
 17 18  1  0  0  0  0
 17 55  1  0  0  0  0
 18 19  1  0  0  0  0
 18 37  2  0  0  0  0
 19 20  2  0  0  0  0
 20 21  1  0  0  0  0
 20 32  1  0  0  0  0
 21 22  1  0  0  0  0
 21 56  1  0  0  0  0
 22 23  1  0  0  0  0
 22 28  2  0  0  0  0
 23 24  2  0  0  0  0
 23 57  1  0  0  0  0
 24 25  1  0  0  0  0
 24 58  1  0  0  0  0
 25 26  2  0  0  0  0
 25 59  1  0  0  0  0
 26 27  1  0  0  0  0
 26 28  1  0  0  0  0
 28 29  1  0  0  0  0
 29 30  1  0  0  0  0
 29 31  2  0  0  0  0
 30 60  1  0  0  0  0
 30 61  1  0  0  0  0
 32 33  1  0  0  0  0
 32 36  2  0  0  0  0
 33 34  2  0  0  0  0
 33 62  1  0  0  0  0
 34 35  1  0  0  0  0
 34 63  1  0  0  0  0
 35 36  1  0  0  0  0
 35 64  1  0  0  0  0
 36 37  1  0  0  0  0
M  END
