REMARK  Name = 
REMARK  10 active torsions:
REMARK  status: ('A' for Active; 'I' for Inactive)
REMARK    1  A    between atoms: C_1  and  C_2
REMARK    2  A    between atoms: C_2  and  N_3
REMARK    3  A    between atoms: C_4  and  C_5
REMARK    4  A    between atoms: C_15  and  O_16
REMARK    5  A    between atoms: O_16  and  C_17
REMARK    6  A    between atoms: C_21  and  N_22
REMARK    7  A    between atoms: C_23  and  C_25
REMARK    8  A    between atoms: C_28  and  N_29
REMARK    9  A    between atoms: N_29  and  C_30
REMARK   10  A    between atoms: N_29  and  C_31
REMARK                            x       y       z     vdW  Elec       q    Type
REMARK                         _______ _______ _______ _____ _____    ______ ____
ROOT
ATOM      1  O   UNL     1       3.250  -1.207   6.101  0.00  0.00    +0.000 OA
ENDROOT
BRANCH   1   8
ATOM      2  N   UNL     1       1.017   0.897   2.339  0.00  0.00    +0.000 N 
ATOM      3  C   UNL     1       0.717   2.174   2.142  0.00  0.00    +0.000 A 
ATOM      4  N   UNL     1       1.111   2.902   3.168  0.00  0.00    +0.000 NA
ATOM      5  C   UNL     1       1.691   2.088   4.062  0.00  0.00    +0.000 A 
ATOM      6  C   UNL     1       2.290   2.270   5.319  0.00  0.00    +0.000 A 
ATOM      7  N   UNL     1       2.805   1.149   5.981  0.00  0.00    +0.000 NA
ATOM      8  C   UNL     1       2.721  -0.086   5.408  0.00  0.00    +0.000 A 
ATOM      9  C   UNL     1       2.151  -0.270   4.208  0.00  0.00    +0.000 A 
ATOM     10  C   UNL     1       1.630   0.778   3.512  0.00  0.00    +0.000 A 
BRANCH   3  11
ATOM     11  C   UNL     1       0.017   2.721   0.909  0.00  0.00    +0.000 A 
ATOM     12  N   UNL     1       0.483   4.043  -0.195  0.00  0.00    +0.000 NA
ATOM     13  O   UNL     1      -0.947   4.080  -1.175  0.00  0.00    +0.000 OA
ATOM     14  N   UNL     1      -1.719   3.099  -0.636  0.00  0.00    +0.000 NA
ATOM     15  C   UNL     1      -1.243   2.383   0.432  0.00  0.00    +0.000 A 
ATOM     16  N   UNL     1      -2.031   1.304   1.046  0.00  0.00    +0.000 N 
ATOM     17  H   UNL     1      -2.954   1.074   0.678  0.00  0.00    +0.000 HD
ATOM     18  H   UNL     1      -1.655   0.786   1.840  0.00  0.00    +0.000 HD
ENDBRANCH   3  11
BRANCH   2  20
ATOM     19  C   UNL     1       1.033   0.087   0.035  0.00  0.00    +0.000 C 
ATOM     20  C   UNL     1       0.527  -0.163   1.446  0.00  0.00    +0.000 C 
ENDBRANCH   2  20
ENDBRANCH   1   8
BRANCH   1  21
ATOM     21  C   UNL     1       3.857  -1.033   7.373  0.00  0.00    +0.000 A 
ATOM     22  C   UNL     1       3.159  -0.530   8.393  0.00  0.00    +0.000 A 
ATOM     23  C   UNL     1       3.795  -0.391   9.658  0.00  0.00    +0.000 A 
ATOM     24  C   UNL     1       5.193  -0.496   9.742  0.00  0.00    +0.000 A 
ATOM     25  C   UNL     1       5.870  -0.982   8.743  0.00  0.00    +0.000 A 
ATOM     26  C   UNL     1       5.205  -1.410   7.586  0.00  0.00    +0.000 A 
BRANCH  25  27
ATOM     27  N   UNL     1       7.334  -1.081   8.828  0.00  0.00    +0.000 N 
ATOM     28  C   UNL     1       8.032  -0.631  10.041  0.00  0.00    +0.000 C 
ATOM     29  O   UNL     1       9.298  -0.717  10.114  0.00  0.00    +0.000 OA
ATOM     30  H   UNL     1       7.866  -1.461   8.045  0.00  0.00    +0.000 HD
BRANCH  28  31
ATOM     31  C   UNL     1       7.240  -0.064  11.208  0.00  0.00    +0.000 A 
ATOM     32  C   UNL     1       6.050  -0.682  11.684  0.00  0.00    +0.000 A 
ATOM     33  C   UNL     1       5.253  -0.009  12.625  0.00  0.00    +0.000 A 
ATOM     34  C   UNL     1       5.725   1.027  13.255  0.00  0.00    +0.000 A 
ATOM     35  C   UNL     1       7.032   1.466  13.005  0.00  0.00    +0.000 A 
ATOM     36  C   UNL     1       7.722   0.994  11.861  0.00  0.00    +0.000 A 
BRANCH  34  37
ATOM     37  N   UNL     1       4.886   1.737  14.231  0.00  0.00    +0.000 N 
ATOM     38  C   UNL     1       3.515   1.277  14.495  0.00  0.00    +0.000 C 
ATOM     39  C   UNL     1       5.419   2.907  14.944  0.00  0.00    +0.000 C 
ENDBRANCH  34  37
ENDBRANCH  28  31
ENDBRANCH  25  27
ENDBRANCH   1  21
TORSDOF 7
