
 OpenBabel03132512093D

 67 70  0  0  0  0  0  0  0  0999 V2000
    0.9434    0.0641    0.0519 C   0  0  0  0  0  0  0  0  0  0  0  0
    0.4701    1.3170    0.5237 O   0  0  0  0  0  0  0  0  0  0  0  0
    0.8131    1.7599    1.8285 C   0  0  0  0  0  0  0  0  0  0  0  0
    2.1210    1.6367    2.2645 C   0  0  0  0  0  0  0  0  0  0  0  0
    2.5463    2.1714    3.4727 C   0  0  0  0  0  0  0  0  0  0  0  0
    3.9647    1.9953    3.9319 C   0  0  0  0  0  0  0  0  0  0  0  0
    1.5938    2.8380    4.2516 C   0  0  0  0  0  0  0  0  0  0  0  0
    2.0002    3.4104    5.5431 N   0  0  0  0  0  0  0  0  0  0  0  0
    1.0158    4.1148    6.3772 C   0  0  0  0  0  0  0  0  0  0  0  0
    3.3910    3.2785    6.0005 C   0  0  0  0  0  0  0  0  0  0  0  0
    4.2421    2.6696    5.2793 O   0  0  0  0  0  0  0  0  0  0  0  0
    3.8112    3.8704    7.3360 C   0  0  0  0  0  0  0  0  0  0  0  0
    3.5775    5.3217    7.3240 N   0  0  0  0  0  0  0  0  0  0  0  0
    3.9839    5.8941    8.6155 C   0  0  0  0  0  0  0  0  0  0  0  0
    4.3656    5.9361    6.2460 C   0  0  0  0  0  0  0  0  0  0  0  0
    0.2967    2.9713    3.8445 C   0  0  0  0  0  0  0  0  0  0  0  0
   -0.1013    2.4174    2.6274 C   0  0  0  0  0  0  0  0  0  0  0  0
   -1.5009    2.5344    2.1933 N   0  0  0  0  0  0  0  0  0  0  0  0
   -2.4773    3.2336    3.0411 C   0  0  0  0  0  0  0  0  0  0  0  0
   -2.2361    4.5196    3.3186 N   0  0  0  0  0  0  0  0  0  0  0  0
   -3.1602    5.1895    4.0487 C   0  0  0  0  0  0  0  0  0  0  0  0
   -3.0118    6.6316    4.2923 N   0  0  0  0  0  0  0  0  0  0  0  0
   -4.0192    7.3505    5.0855 C   0  0  0  0  0  0  0  0  0  0  0  0
   -4.7726    8.3479    4.5345 C   0  0  0  0  0  0  0  0  0  0  0  0
   -5.7554    8.9711    5.3041 C   0  0  0  0  0  0  0  0  0  0  0  0
   -5.9818    8.5678    6.6052 C   0  0  0  0  0  0  0  0  0  0  0  0
   -5.2035    7.5562    7.1409 C   0  0  0  0  0  0  0  0  0  0  0  0
   -5.4097    7.1818    8.4003 F   0  0  0  0  0  0  0  0  0  0  0  0
   -4.2144    6.9210    6.4029 C   0  0  0  0  0  0  0  0  0  0  0  0
   -3.3667    5.8475    7.0217 C   0  0  0  0  0  0  0  0  0  0  0  0
   -2.2947    5.2153    6.2394 N   0  0  0  0  0  0  0  0  0  0  0  0
   -3.5759    5.4854    8.2218 O   0  0  0  0  0  0  0  0  0  0  0  0
   -4.2716    4.4847    4.5750 C   0  0  0  0  0  0  0  0  0  0  0  0
   -5.4136    4.7169    5.4530 C   0  0  0  0  0  0  0  0  0  0  0  0
   -6.1132    3.5577    5.4628 C   0  0  0  0  0  0  0  0  0  0  0  0
   -5.5148    2.5888    4.6720 N   0  0  0  0  0  0  0  0  0  0  0  0
   -4.3735    3.1508    4.1486 C   0  0  0  0  0  0  0  0  0  0  0  0
   -3.5063    2.4759    3.3639 N   0  0  0  0  0  0  0  0  0  0  0  0
    0.5867   -0.1001   -0.9435 H   0  0  0  0  0  0  0  0  0  0  0  0
    0.5868   -0.7158    0.6917 H   0  0  0  0  0  0  0  0  0  0  0  0
    2.0134    0.0641    0.0519 H   0  0  0  0  0  0  0  0  0  0  0  0
    2.8253    1.1137    1.6519 H   0  0  0  0  0  0  0  0  0  0  0  0
    4.4113    2.9552    4.0868 H   0  0  0  0  0  0  0  0  0  0  0  0
    3.9769    1.4441    4.8489 H   0  0  0  0  0  0  0  0  0  0  0  0
    4.5169    1.4610    3.1873 H   0  0  0  0  0  0  0  0  0  0  0  0
    0.9313    3.6212    7.3228 H   0  0  0  0  0  0  0  0  0  0  0  0
    1.3348    5.1247    6.5294 H   0  0  0  0  0  0  0  0  0  0  0  0
    0.0649    4.1111    5.8867 H   0  0  0  0  0  0  0  0  0  0  0  0
    3.2375    3.4232    8.1207 H   0  0  0  0  0  0  0  0  0  0  0  0
    4.8509    3.6780    7.5001 H   0  0  0  0  0  0  0  0  0  0  0  0
    5.0235    5.7017    8.7796 H   0  0  0  0  0  0  0  0  0  0  0  0
    3.8137    6.9505    8.6069 H   0  0  0  0  0  0  0  0  0  0  0  0
    3.4102    5.4469    9.4002 H   0  0  0  0  0  0  0  0  0  0  0  0
    5.4053    5.7437    6.4101 H   0  0  0  0  0  0  0  0  0  0  0  0
    4.0698    5.5194    5.3059 H   0  0  0  0  0  0  0  0  0  0  0  0
    4.1954    6.9925    6.2373 H   0  0  0  0  0  0  0  0  0  0  0  0
   -0.4085    3.4964    4.4543 H   0  0  0  0  0  0  0  0  0  0  0  0
   -1.7945    2.1304    1.3040 H   0  0  0  0  0  0  0  0  0  0  0  0
   -2.2098    7.1333    3.9110 H   0  0  0  0  0  0  0  0  0  0  0  0
   -4.6103    8.6488    3.5206 H   0  0  0  0  0  0  0  0  0  0  0  0
   -6.3365    9.7653    4.8841 H   0  0  0  0  0  0  0  0  0  0  0  0
   -6.7482    9.0307    7.1911 H   0  0  0  0  0  0  0  0  0  0  0  0
   -1.7187    4.4859    6.6598 H   0  0  0  0  0  0  0  0  0  0  0  0
   -2.1268    5.5059    5.2762 H   0  0  0  0  0  0  0  0  0  0  0  0
   -5.6495    5.6175    5.9804 H   0  0  0  0  0  0  0  0  0  0  0  0
   -7.0180    3.4076    6.0140 H   0  0  0  0  0  0  0  0  0  0  0  0
   -5.8554    1.6412    4.5095 H   0  0  0  0  0  0  0  0  0  0  0  0
  1  2  1  0  0  0  0
  1 39  1  0  0  0  0
  1 40  1  0  0  0  0
  1 41  1  0  0  0  0
  2  3  1  0  0  0  0
  3  4  1  0  0  0  0
  3 17  2  0  0  0  0
  4  5  2  0  0  0  0
  4 42  1  0  0  0  0
  5  6  1  0  0  0  0
  5  7  1  0  0  0  0
  6 43  1  0  0  0  0
  6 44  1  0  0  0  0
  6 45  1  0  0  0  0
  7  8  1  0  0  0  0
  7 16  2  0  0  0  0
  8  9  1  0  0  0  0
  8 10  1  0  0  0  0
  9 46  1  0  0  0  0
  9 47  1  0  0  0  0
  9 48  1  0  0  0  0
 10 11  2  0  0  0  0
 10 12  1  0  0  0  0
 12 13  1  0  0  0  0
 12 49  1  0  0  0  0
 12 50  1  0  0  0  0
 13 14  1  0  0  0  0
 13 15  1  0  0  0  0
 14 51  1  0  0  0  0
 14 52  1  0  0  0  0
 14 53  1  0  0  0  0
 15 54  1  0  0  0  0
 15 55  1  0  0  0  0
 15 56  1  0  0  0  0
 16 17  1  0  0  0  0
 16 57  1  0  0  0  0
 17 18  1  0  0  0  0
 18 19  1  0  0  0  0
 18 58  1  0  0  0  0
 19 20  1  0  0  0  0
 19 38  2  0  0  0  0
 20 21  2  0  0  0  0
 21 22  1  0  0  0  0
 21 33  1  0  0  0  0
 22 23  1  0  0  0  0
 22 59  1  0  0  0  0
 23 24  1  0  0  0  0
 23 29  2  0  0  0  0
 24 25  2  0  0  0  0
 24 60  1  0  0  0  0
 25 26  1  0  0  0  0
 25 61  1  0  0  0  0
 26 27  2  0  0  0  0
 26 62  1  0  0  0  0
 27 28  1  0  0  0  0
 27 29  1  0  0  0  0
 29 30  1  0  0  0  0
 30 31  1  0  0  0  0
 30 32  2  0  0  0  0
 31 63  1  0  0  0  0
 31 64  1  0  0  0  0
 33 34  1  0  0  0  0
 33 37  2  0  0  0  0
 34 35  2  0  0  0  0
 34 65  1  0  0  0  0
 35 36  1  0  0  0  0
 35 66  1  0  0  0  0
 36 37  1  0  0  0  0
 36 67  1  0  0  0  0
 37 38  1  0  0  0  0
M  END
