REMARK  Name = 
REMARK  11 active torsions:
REMARK  status: ('A' for Active; 'I' for Inactive)
REMARK    1  A    between atoms: C_1  and  O_2
REMARK    2  A    between atoms: O_2  and  C_3
REMARK    3  A    between atoms: C_5  and  C_6
REMARK    4  A    between atoms: C_7  and  N_8
REMARK    5  A    between atoms: C_9  and  C_11
REMARK    6  A    between atoms: C_11  and  N_12
REMARK    7  A    between atoms: N_12  and  C_13
REMARK    8  A    between atoms: N_12  and  C_14
REMARK    9  A    between atoms: C_16  and  N_17
REMARK   10  A    between atoms: N_21  and  C_22
REMARK   11  A    between atoms: C_28  and  C_29
REMARK                            x       y       z     vdW  Elec       q    Type
REMARK                         _______ _______ _______ _____ _____    ______ ____
ROOT
ATOM      1  N   UNL     1      -1.459  -1.658   2.724  0.00  0.00    +0.000 N 
ATOM      2  C   UNL     1      -2.497  -2.344   3.508  0.00  0.00    +0.000 A 
ATOM      3  N   UNL     1      -2.212  -2.407   4.813  0.00  0.00    +0.000 NA
ATOM      4  C   UNL     1      -3.128  -2.979   5.630  0.00  0.00    +0.000 A 
ATOM      5  N   UNL     1      -2.929  -2.979   7.086  0.00  0.00    +0.000 N 
ATOM      6  C   UNL     1      -4.282  -3.578   5.065  0.00  0.00    +0.000 A 
ATOM      7  C   UNL     1      -5.439  -4.363   5.485  0.00  0.00    +0.000 A 
ATOM      8  C   UNL     1      -6.185  -4.545   4.370  0.00  0.00    +0.000 A 
ATOM      9  N   UNL     1      -5.604  -3.952   3.259  0.00  0.00    +0.000 N 
ATOM     10  C   UNL     1      -4.426  -3.381   3.683  0.00  0.00    +0.000 A 
ATOM     11  N   UNL     1      -3.565  -2.755   2.853  0.00  0.00    +0.000 NA
ATOM     12  H   UNL     1      -1.692  -0.818   2.194  0.00  0.00    +0.000 HD
ATOM     13  H   UNL     1      -2.096  -2.547   7.487  0.00  0.00    +0.000 HD
ATOM     14  H   UNL     1      -5.978  -3.941   2.310  0.00  0.00    +0.000 HD
ENDROOT
BRANCH   1  21
ATOM     15  C   UNL     1       0.886  -1.536   1.966  0.00  0.00    +0.000 A 
ATOM     16  C   UNL     1       2.167  -2.059   1.937  0.00  0.00    +0.000 A 
ATOM     17  C   UNL     1       2.510  -3.203   2.643  0.00  0.00    +0.000 A 
ATOM     18  C   UNL     1       3.901  -3.762   2.568  0.00  0.00    +0.000 C 
ATOM     19  C   UNL     1       1.501  -3.827   3.386  0.00  0.00    +0.000 A 
ATOM     20  C   UNL     1       0.229  -3.332   3.429  0.00  0.00    +0.000 A 
ATOM     21  C   UNL     1      -0.086  -2.183   2.703  0.00  0.00    +0.000 A 
BRANCH  19  22
ATOM     22  N   UNL     1       1.820  -5.048   4.141  0.00  0.00    +0.000 N 
ATOM     23  C   UNL     1       0.775  -5.719   4.928  0.00  0.00    +0.000 C 
ATOM     24  O   UNL     1       1.050  -6.774   5.580  0.00  0.00    +0.000 OA
ATOM     25  H   UNL     1       2.765  -5.429   4.118  0.00  0.00    +0.000 HD
BRANCH  23  26
ATOM     26  C   UNL     1      -0.634  -5.151   4.961  0.00  0.00    +0.000 C 
BRANCH  26  27
ATOM     27  N   UNL     1      -0.600  -3.786   5.507  0.00  0.00    +0.000 NA
ATOM     28  C   UNL     1      -1.963  -3.237   5.539  0.00  0.00    +0.000 C 
ATOM     29  C   UNL     1      -0.052  -3.818   6.871  0.00  0.00    +0.000 C 
ENDBRANCH  26  27
ENDBRANCH  23  26
ENDBRANCH  19  22
BRANCH  15  31
ATOM     30  C   UNL     1       1.016   0.046   0.087  0.00  0.00    +0.000 C 
ATOM     31  O   UNL     1       0.542  -0.287   1.384  0.00  0.00    +0.000 OA
ENDBRANCH  15  31
ENDBRANCH   1  21
BRANCH   5  32
ATOM     32  C   UNL     1      -3.928  -3.602   7.966  0.00  0.00    +0.000 A 
ATOM     33  C   UNL     1      -4.579  -2.791   8.851  0.00  0.00    +0.000 A 
ATOM     34  C   UNL     1      -5.572  -3.327   9.671  0.00  0.00    +0.000 A 
ATOM     35  C   UNL     1      -5.913  -4.661   9.573  0.00  0.00    +0.000 A 
ATOM     36  C   UNL     1      -5.237  -5.463   8.669  0.00  0.00    +0.000 A 
ATOM     37  F   UNL     1      -5.553  -6.752   8.589  0.00  0.00    +0.000 F 
ATOM     38  C   UNL     1      -4.240  -4.961   7.844  0.00  0.00    +0.000 A 
BRANCH  38  39
ATOM     39  C   UNL     1      -3.505  -5.862   6.894  0.00  0.00    +0.000 C 
ATOM     40  N   UNL     1      -2.423  -5.323   6.059  0.00  0.00    +0.000 N 
ATOM     41  O   UNL     1      -3.819  -7.091   6.813  0.00  0.00    +0.000 OA
ATOM     42  H   UNL     1      -1.923  -5.935   5.414  0.00  0.00    +0.000 HD
ATOM     43  H   UNL     1      -2.171  -4.337   6.124  0.00  0.00    +0.000 HD
ENDBRANCH  38  39
ENDBRANCH   5  32
TORSDOF 7
