
 OpenBabel03132512093D

 60 64  0  0  0  0  0  0  0  0999 V2000
    1.0333    0.0873    0.0355 C   0  0  0  0  0  0  0  0  0  0  0  0
    0.5266   -0.1633    1.4465 C   0  0  0  0  0  0  0  0  0  0  0  0
    1.0166    0.8972    2.3387 N   0  0  0  0  0  0  0  0  0  0  0  0
    0.7166    2.1743    2.1423 C   0  0  0  0  0  0  0  0  0  0  0  0
    0.0167    2.7211    0.9088 C   0  0  0  0  0  0  0  0  0  0  0  0
    0.4828    4.0428   -0.1950 N   0  0  0  0  0  0  0  0  0  0  0  0
   -0.9465    4.0805   -1.1755 O   0  0  0  0  0  0  0  0  0  0  0  0
   -1.7193    3.0995   -0.6363 N   0  0  0  0  0  0  0  0  0  0  0  0
   -1.2426    2.3828    0.4324 C   0  0  0  0  0  0  0  0  0  0  0  0
   -2.0307    1.3041    1.0458 N   0  0  0  0  0  0  0  0  0  0  0  0
    1.1112    2.9023    3.1684 N   0  0  0  0  0  0  0  0  0  0  0  0
    1.6912    2.0882    4.0625 C   0  0  0  0  0  0  0  0  0  0  0  0
    2.2903    2.2696    5.3186 C   0  0  0  0  0  0  0  0  0  0  0  0
    2.8052    1.1485    5.9806 N   0  0  0  0  0  0  0  0  0  0  0  0
    2.7208   -0.0859    5.4084 C   0  0  0  0  0  0  0  0  0  0  0  0
    3.2499   -1.2066    6.1014 O   0  0  0  0  0  0  0  0  0  0  0  0
    3.8570   -1.0332    7.3733 C   0  0  0  0  0  0  0  0  0  0  0  0
    3.1589   -0.5298    8.3927 C   0  0  0  0  0  0  0  0  0  0  0  0
    3.7946   -0.3910    9.6579 C   0  0  0  0  0  0  0  0  0  0  0  0
    5.1927   -0.4961    9.7417 C   0  0  0  0  0  0  0  0  0  0  0  0
    5.8698   -0.9815    8.7429 C   0  0  0  0  0  0  0  0  0  0  0  0
    7.3340   -1.0805    8.8278 N   0  0  0  0  0  0  0  0  0  0  0  0
    8.0320   -0.6311   10.0410 C   0  0  0  0  0  0  0  0  0  0  0  0
    9.2979   -0.7167   10.1143 O   0  0  0  0  0  0  0  0  0  0  0  0
    7.2397   -0.0640   11.2076 C   0  0  0  0  0  0  0  0  0  0  0  0
    6.0499   -0.6817   11.6841 C   0  0  0  0  0  0  0  0  0  0  0  0
    5.2534   -0.0086   12.6250 C   0  0  0  0  0  0  0  0  0  0  0  0
    5.7252    1.0267   13.2551 C   0  0  0  0  0  0  0  0  0  0  0  0
    4.8864    1.7368   14.2314 N   0  0  0  0  0  0  0  0  0  0  0  0
    3.5154    1.2768   14.4949 C   0  0  0  0  0  0  0  0  0  0  0  0
    5.4187    2.9071   14.9442 C   0  0  0  0  0  0  0  0  0  0  0  0
    7.0320    1.4660   13.0047 C   0  0  0  0  0  0  0  0  0  0  0  0
    7.7217    0.9943   11.8613 C   0  0  0  0  0  0  0  0  0  0  0  0
    5.2054   -1.4101    7.5861 C   0  0  0  0  0  0  0  0  0  0  0  0
    2.1511   -0.2698    4.2079 C   0  0  0  0  0  0  0  0  0  0  0  0
    1.6299    0.7781    3.5117 C   0  0  0  0  0  0  0  0  0  0  0  0
    0.6766    1.0357   -0.3083 H   0  0  0  0  0  0  0  0  0  0  0  0
    0.6766   -0.6846   -0.6139 H   0  0  0  0  0  0  0  0  0  0  0  0
    2.1033    0.0873    0.0355 H   0  0  0  0  0  0  0  0  0  0  0  0
   -0.5434   -0.1633    1.4465 H   0  0  0  0  0  0  0  0  0  0  0  0
    0.8833   -1.1117    1.7903 H   0  0  0  0  0  0  0  0  0  0  0  0
   -2.9538    1.0742    0.6777 H   0  0  0  0  0  0  0  0  0  0  0  0
   -1.6546    0.7857    1.8396 H   0  0  0  0  0  0  0  0  0  0  0  0
    2.3522    3.2423    5.7601 H   0  0  0  0  0  0  0  0  0  0  0  0
    2.1386   -0.2356    8.2610 H   0  0  0  0  0  0  0  0  0  0  0  0
    3.2131   -0.2082   10.5373 H   0  0  0  0  0  0  0  0  0  0  0  0
    5.7009   -0.1768   10.6275 H   0  0  0  0  0  0  0  0  0  0  0  0
    7.8657   -1.4610    8.0449 H   0  0  0  0  0  0  0  0  0  0  0  0
    5.7645   -1.6499   11.3291 H   0  0  0  0  0  0  0  0  0  0  0  0
    4.2581   -0.3477   12.8233 H   0  0  0  0  0  0  0  0  0  0  0  0
    3.4190    1.0159   15.5281 H   0  0  0  0  0  0  0  0  0  0  0  0
    2.8250    2.0594   14.2587 H   0  0  0  0  0  0  0  0  0  0  0  0
    3.3041    0.4201   13.8896 H   0  0  0  0  0  0  0  0  0  0  0  0
    6.2827    2.6198   15.5062 H   0  0  0  0  0  0  0  0  0  0  0  0
    5.6886    3.6632   14.2368 H   0  0  0  0  0  0  0  0  0  0  0  0
    4.6723    3.2901   15.6083 H   0  0  0  0  0  0  0  0  0  0  0  0
    7.5059    2.1538   13.6734 H   0  0  0  0  0  0  0  0  0  0  0  0
    8.6151    1.4791   11.5271 H   0  0  0  0  0  0  0  0  0  0  0  0
    5.7138   -2.0186    6.8677 H   0  0  0  0  0  0  0  0  0  0  0  0
    2.1056   -1.2543    3.7913 H   0  0  0  0  0  0  0  0  0  0  0  0
  1  2  1  0  0  0  0
  1 37  1  0  0  0  0
  1 38  1  0  0  0  0
  1 39  1  0  0  0  0
  2  3  1  0  0  0  0
  2 40  1  0  0  0  0
  2 41  1  0  0  0  0
  3  4  1  0  0  0  0
  3 36  1  0  0  0  0
  4  5  1  0  0  0  0
  4 11  2  0  0  0  0
  5  6  2  0  0  0  0
  5  9  1  0  0  0  0
  6  7  1  0  0  0  0
  7  8  1  0  0  0  0
  8  9  2  0  0  0  0
  9 10  1  0  0  0  0
 10 42  1  0  0  0  0
 10 43  1  0  0  0  0
 11 12  1  0  0  0  0
 12 13  1  0  0  0  0
 12 36  2  0  0  0  0
 13 14  2  0  0  0  0
 13 44  1  0  0  0  0
 14 15  1  0  0  0  0
 15 16  1  0  0  0  0
 15 35  2  0  0  0  0
 16 17  1  0  0  0  0
 17 18  1  0  0  0  0
 17 34  2  0  0  0  0
 18 19  2  0  0  0  0
 18 45  1  0  0  0  0
 19 20  1  0  0  0  0
 19 46  1  0  0  0  0
 20 21  2  0  0  0  0
 20 47  1  0  0  0  0
 21 22  1  0  0  0  0
 21 34  1  0  0  0  0
 22 23  1  0  0  0  0
 22 48  1  0  0  0  0
 23 24  2  0  0  0  0
 23 25  1  0  0  0  0
 25 26  1  0  0  0  0
 25 33  2  0  0  0  0
 26 27  2  0  0  0  0
 26 49  1  0  0  0  0
 27 28  1  0  0  0  0
 27 50  1  0  0  0  0
 28 29  1  0  0  0  0
 28 32  2  0  0  0  0
 29 30  1  0  0  0  0
 29 31  1  0  0  0  0
 30 51  1  0  0  0  0
 30 52  1  0  0  0  0
 30 53  1  0  0  0  0
 31 54  1  0  0  0  0
 31 55  1  0  0  0  0
 31 56  1  0  0  0  0
 32 33  1  0  0  0  0
 32 57  1  0  0  0  0
 33 58  1  0  0  0  0
 34 59  1  0  0  0  0
 35 36  1  0  0  0  0
 35 60  1  0  0  0  0
M  END
