
 OpenBabel03132514253D

 47 50  0  0  0  0  0  0  0  0999 V2000
    0.9145    0.0472   -0.0215 C   0  0  0  0  0  0  0  0  0  0  0  0
    0.4412    0.7380    1.1253 O   0  0  0  0  0  0  0  0  0  0  0  0
    0.7842    0.2768    2.4238 C   0  0  0  0  0  0  0  0  0  0  0  0
    2.0635   -0.0877    2.7026 C   0  0  0  0  0  0  0  0  0  0  0  0
    2.4533   -0.4070    3.9569 C   0  0  0  0  0  0  0  0  0  0  0  0
    1.5253   -0.3763    4.9996 C   0  0  0  0  0  0  0  0  0  0  0  0
    1.5712   -0.6307    6.3173 N   0  0  0  0  0  0  0  0  0  0  0  0
    0.3696   -0.4338    6.8203 C   0  0  0  0  0  0  0  0  0  0  0  0
   -0.4747   -0.0571    5.8712 N   0  0  0  0  0  0  0  0  0  0  0  0
   -1.8996    0.2487    6.0635 C   0  0  0  0  0  0  0  0  0  0  0  0
   -2.4142    1.2109    6.8672 C   0  0  0  0  0  0  0  0  0  0  0  0
   -3.7595    1.1384    6.7208 C   0  0  0  0  0  0  0  0  0  0  0  0
   -4.7213    1.9597    7.3666 O   0  0  0  0  0  0  0  0  0  0  0  0
   -4.2992    2.9747    8.2654 C   0  0  0  0  0  0  0  0  0  0  0  0
   -3.5240    2.3461    9.4118 C   0  0  0  0  0  0  0  0  0  0  0  0
   -3.4066    3.9622    7.5315 C   0  0  0  0  0  0  0  0  0  0  0  0
   -3.5748    5.3487    7.8024 C   0  0  0  0  0  0  0  0  0  0  0  0
   -3.0715    6.2943    6.8941 C   0  0  0  0  0  0  0  0  0  0  0  0
   -2.2325    5.9270    5.9706 C   0  0  0  0  0  0  0  0  0  0  0  0
   -1.8211    4.5902    5.8867 C   0  0  0  0  0  0  0  0  0  0  0  0
   -2.5407    3.5914    6.5868 C   0  0  0  0  0  0  0  0  0  0  0  0
   -2.2938    1.8688    6.2122 Cl  0  0  0  0  0  0  0  0  0  0  0  0
   -4.0081    0.1745    5.8768 C   0  0  0  0  0  0  0  0  0  0  0  0
   -5.3932   -0.2548    5.4211 C   0  0  0  0  0  0  0  0  0  0  0  0
   -6.5838    0.4346    5.9390 N   0  0  0  0  0  0  0  0  0  0  0  0
   -5.5220   -1.2096    4.5924 O   0  0  0  0  0  0  0  0  0  0  0  0
   -2.9030   -0.3570    5.4894 S   0  0  0  0  0  0  0  0  0  0  0  0
    0.1825   -0.0015    4.7138 C   0  0  0  0  0  0  0  0  0  0  0  0
   -0.1627    0.3258    3.3858 C   0  0  0  0  0  0  0  0  0  0  0  0
    0.5578    0.5354   -0.9043 H   0  0  0  0  0  0  0  0  0  0  0  0
    0.5578   -0.9614   -0.0028 H   0  0  0  0  0  0  0  0  0  0  0  0
    1.9845    0.0472   -0.0215 H   0  0  0  0  0  0  0  0  0  0  0  0
    2.7803   -0.1229    1.9089 H   0  0  0  0  0  0  0  0  0  0  0  0
    3.4692   -0.6822    4.1499 H   0  0  0  0  0  0  0  0  0  0  0  0
    0.1116   -0.5605    7.8510 H   0  0  0  0  0  0  0  0  0  0  0  0
   -1.8695    1.8893    7.4901 H   0  0  0  0  0  0  0  0  0  0  0  0
   -5.1552    3.4871    8.6522 H   0  0  0  0  0  0  0  0  0  0  0  0
   -2.6680    1.8338    9.0250 H   0  0  0  0  0  0  0  0  0  0  0  0
   -3.2060    3.1110   10.0891 H   0  0  0  0  0  0  0  0  0  0  0  0
   -4.1524    1.6510    9.9284 H   0  0  0  0  0  0  0  0  0  0  0  0
   -4.0801    5.6681    8.6899 H   0  0  0  0  0  0  0  0  0  0  0  0
   -3.3783    7.3171    6.9618 H   0  0  0  0  0  0  0  0  0  0  0  0
   -1.8559    6.6467    5.2740 H   0  0  0  0  0  0  0  0  0  0  0  0
   -0.9683    4.3256    5.2972 H   0  0  0  0  0  0  0  0  0  0  0  0
   -7.5133    0.1466    5.6332 H   0  0  0  0  0  0  0  0  0  0  0  0
   -6.4805    1.2010    6.6041 H   0  0  0  0  0  0  0  0  0  0  0  0
   -1.1652    0.6103    3.1428 H   0  0  0  0  0  0  0  0  0  0  0  0
  1  2  1  0  0  0  0
  1 30  1  0  0  0  0
  1 31  1  0  0  0  0
  1 32  1  0  0  0  0
  2  3  1  0  0  0  0
  3  4  1  0  0  0  0
  3 29  2  0  0  0  0
  4  5  2  0  0  0  0
  4 33  1  0  0  0  0
  5  6  1  0  0  0  0
  5 34  1  0  0  0  0
  6  7  1  0  0  0  0
  6 28  2  0  0  0  0
  7  8  2  0  0  0  0
  8  9  1  0  0  0  0
  8 35  1  0  0  0  0
  9 10  1  0  0  0  0
  9 28  1  0  0  0  0
 10 11  2  0  0  0  0
 10 27  1  0  0  0  0
 11 12  1  0  0  0  0
 11 36  1  0  0  0  0
 12 13  1  0  0  0  0
 12 23  2  0  0  0  0
 13 14  1  0  0  0  0
 14 15  1  0  0  0  0
 14 16  1  0  0  0  0
 14 37  1  0  0  0  0
 15 38  1  0  0  0  0
 15 39  1  0  0  0  0
 15 40  1  0  0  0  0
 16 17  1  0  0  0  0
 16 21  2  0  0  0  0
 17 18  2  0  0  0  0
 17 41  1  0  0  0  0
 18 19  1  0  0  0  0
 18 42  1  0  0  0  0
 19 20  2  0  0  0  0
 19 43  1  0  0  0  0
 20 21  1  0  0  0  0
 20 44  1  0  0  0  0
 21 22  1  0  0  0  0
 23 24  1  0  0  0  0
 23 27  1  0  0  0  0
 24 25  1  0  0  0  0
 24 26  2  0  0  0  0
 25 45  1  0  0  0  0
 25 46  1  0  0  0  0
 28 29  1  0  0  0  0
 29 47  1  0  0  0  0
M  END
