REMARK  Name = 
REMARK  9 active torsions:
REMARK  status: ('A' for Active; 'I' for Inactive)
REMARK    1  A    between atoms: C_1  and  O_2
REMARK    2  A    between atoms: O_2  and  C_3
REMARK    3  A    between atoms: N_9  and  C_10
REMARK    4  A    between atoms: C_12  and  O_13
REMARK    5  A    between atoms: O_13  and  C_14
REMARK    6  A    between atoms: C_14  and  C_15
REMARK    7  A    between atoms: C_14  and  C_16
REMARK    8  A    between atoms: C_21  and  C_22
REMARK    9  A    between atoms: C_26  and  C_27
REMARK                            x       y       z     vdW  Elec       q    Type
REMARK                         _______ _______ _______ _____ _____    ______ ____
ROOT
ATOM      1  C   UNL     1      -1.753  -1.949   5.796  0.00  0.00    +0.000 A 
ATOM      2  C   UNL     1      -2.256  -1.297   6.872  0.00  0.00    +0.000 A 
ATOM      3  C   UNL     1      -3.602  -1.297   6.712  0.00  0.00    +0.000 A 
ATOM      4  C   UNL     1      -3.862  -1.925   5.598  0.00  0.00    +0.000 A 
ATOM      5  S   UNL     1      -2.763  -2.316   5.056  0.00  0.00    +0.000 S 
ENDROOT
BRANCH   1  12
ATOM      6  C   UNL     1       0.943  -0.765   2.363  0.00  0.00    +0.000 A 
ATOM      7  C   UNL     1       2.216  -1.220   2.504  0.00  0.00    +0.000 A 
ATOM      8  C   UNL     1       2.597  -1.940   3.583  0.00  0.00    +0.000 A 
ATOM      9  C   UNL     1       1.666  -2.240   4.580  0.00  0.00    +0.000 A 
ATOM     10  N   UNL     1       1.704  -2.914   5.740  0.00  0.00    +0.000 NA
ATOM     11  C   UNL     1       0.503  -2.876   6.282  0.00  0.00    +0.000 A 
ATOM     12  N   UNL     1      -0.332  -2.196   5.511  0.00  0.00    +0.000 N 
ATOM     13  C   UNL     1       0.330  -1.772   4.435  0.00  0.00    +0.000 A 
ATOM     14  C   UNL     1      -0.007  -1.022   3.289  0.00  0.00    +0.000 A 
BRANCH   6  16
ATOM     15  C   UNL     1       1.073  -0.068   0.008  0.00  0.00    +0.000 C 
ATOM     16  O   UNL     1       0.600   0.146   1.330  0.00  0.00    +0.000 OA
ENDBRANCH   6  16
ENDBRANCH   1  12
BRANCH   4  17
ATOM     17  C   UNL     1      -5.251  -2.159   5.028  0.00  0.00    +0.000 C 
ATOM     18  N   UNL     1      -6.434  -1.660   5.745  0.00  0.00    +0.000 N 
ATOM     19  O   UNL     1      -5.391  -2.785   3.931  0.00  0.00    +0.000 OA
ATOM     20  H   UNL     1      -7.366  -1.817   5.363  0.00  0.00    +0.000 HD
ATOM     21  H   UNL     1      -6.321  -1.157   6.625  0.00  0.00    +0.000 HD
ENDBRANCH   4  17
BRANCH   3  22
ATOM     22  O   UNL     1      -4.554  -0.719   7.593  0.00  0.00    +0.000 OA
BRANCH  22  23
ATOM     23  C   UNL     1      -4.120  -0.063   8.775  0.00  0.00    +0.000 C 
ATOM     24  C   UNL     1      -3.359  -1.046   9.650  0.00  0.00    +0.000 C 
BRANCH  23  25
ATOM     25  C   UNL     1      -3.210   1.097   8.406  0.00  0.00    +0.000 A 
ATOM     26  C   UNL     1      -3.571   2.418   8.792  0.00  0.00    +0.000 A 
ATOM     27  C   UNL     1      -2.924   3.512   8.193  0.00  0.00    +0.000 A 
ATOM     28  C   UNL     1      -1.834   3.328   7.508  0.00  0.00    +0.000 A 
ATOM     29  C   UNL     1      -1.296   2.041   7.376  0.00  0.00    +0.000 A 
ATOM     30  C   UNL     1      -2.087   0.914   7.709  0.00  0.00    +0.000 A 
BRANCH  30  31
ATOM     31  C   UNL     1      -1.665  -0.481   7.278  0.00  0.00    +0.000 C 
ATOM     32  F   UNL     1      -1.588  -0.531   5.951  0.00  0.00    +0.000 F 
ATOM     33  F   UNL     1      -0.476  -0.765   7.802  0.00  0.00    +0.000 F 
ATOM     34  F   UNL     1      -2.560  -1.367   7.704  0.00  0.00    +0.000 F 
ENDBRANCH  30  31
ENDBRANCH  23  25
ENDBRANCH  22  23
ENDBRANCH   3  22
TORSDOF 7
