
 OpenBabel03132512093D

 50 53  0  0  0  0  0  0  0  0999 V2000
    1.0728   -0.0680    0.0082 C   0  0  0  0  0  0  0  0  0  0  0  0
    0.5995    0.1460    1.3298 O   0  0  0  0  0  0  0  0  0  0  0  0
    0.9425   -0.7655    2.3632 C   0  0  0  0  0  0  0  0  0  0  0  0
    2.2155   -1.2203    2.5043 C   0  0  0  0  0  0  0  0  0  0  0  0
    2.5966   -1.9400    3.5832 C   0  0  0  0  0  0  0  0  0  0  0  0
    1.6658   -2.2402    4.5797 C   0  0  0  0  0  0  0  0  0  0  0  0
    1.7037   -2.9143    5.7404 N   0  0  0  0  0  0  0  0  0  0  0  0
    0.5034   -2.8761    6.2822 C   0  0  0  0  0  0  0  0  0  0  0  0
   -0.3322   -2.1957    5.5113 N   0  0  0  0  0  0  0  0  0  0  0  0
   -1.7531   -1.9491    5.7958 C   0  0  0  0  0  0  0  0  0  0  0  0
   -2.2564   -1.2972    6.8721 C   0  0  0  0  0  0  0  0  0  0  0  0
   -3.6020   -1.2966    6.7117 C   0  0  0  0  0  0  0  0  0  0  0  0
   -4.5538   -0.7188    7.5930 O   0  0  0  0  0  0  0  0  0  0  0  0
   -4.1201   -0.0628    8.7753 C   0  0  0  0  0  0  0  0  0  0  0  0
   -3.3590   -1.0458    9.6500 C   0  0  0  0  0  0  0  0  0  0  0  0
   -3.2098    1.0971    8.4063 C   0  0  0  0  0  0  0  0  0  0  0  0
   -3.5707    2.4182    8.7920 C   0  0  0  0  0  0  0  0  0  0  0  0
   -2.9243    3.5117    8.1930 C   0  0  0  0  0  0  0  0  0  0  0  0
   -1.8338    3.3279    7.5084 C   0  0  0  0  0  0  0  0  0  0  0  0
   -1.2962    2.0407    7.3761 C   0  0  0  0  0  0  0  0  0  0  0  0
   -2.0874    0.9142    7.7088 C   0  0  0  0  0  0  0  0  0  0  0  0
   -1.6646   -0.4808    7.2780 C   0  0  0  0  0  0  0  0  0  0  0  0
   -1.5877   -0.5308    5.9511 F   0  0  0  0  0  0  0  0  0  0  0  0
   -0.4757   -0.7653    7.8019 F   0  0  0  0  0  0  0  0  0  0  0  0
   -2.5603   -1.3668    7.7039 F   0  0  0  0  0  0  0  0  0  0  0  0
   -3.8618   -1.9250    5.5978 C   0  0  0  0  0  0  0  0  0  0  0  0
   -5.2513   -2.1588    5.0278 C   0  0  0  0  0  0  0  0  0  0  0  0
   -6.4335   -1.6599    5.7452 N   0  0  0  0  0  0  0  0  0  0  0  0
   -5.3912   -2.7855    3.9311 O   0  0  0  0  0  0  0  0  0  0  0  0
   -2.7633   -2.3164    5.0556 S   0  0  0  0  0  0  0  0  0  0  0  0
    0.3295   -1.7724    4.4353 C   0  0  0  0  0  0  0  0  0  0  0  0
   -0.0067   -1.0215    3.2894 C   0  0  0  0  0  0  0  0  0  0  0  0
    0.7162    0.7138   -0.6293 H   0  0  0  0  0  0  0  0  0  0  0  0
    0.7162   -1.0111   -0.3500 H   0  0  0  0  0  0  0  0  0  0  0  0
    2.1428   -0.0680    0.0082 H   0  0  0  0  0  0  0  0  0  0  0  0
    2.9342   -1.0031    1.7421 H   0  0  0  0  0  0  0  0  0  0  0  0
    3.6077   -2.2783    3.6732 H   0  0  0  0  0  0  0  0  0  0  0  0
    0.2403   -3.3308    7.2144 H   0  0  0  0  0  0  0  0  0  0  0  0
   -1.7040   -0.8702    7.6830 H   0  0  0  0  0  0  0  0  0  0  0  0
   -4.9698    0.3068    9.3103 H   0  0  0  0  0  0  0  0  0  0  0  0
   -2.5093   -1.4154    9.1150 H   0  0  0  0  0  0  0  0  0  0  0  0
   -3.0322   -0.5515   10.5409 H   0  0  0  0  0  0  0  0  0  0  0  0
   -3.9998   -1.8623    9.9098 H   0  0  0  0  0  0  0  0  0  0  0  0
   -4.3276    2.5771    9.5315 H   0  0  0  0  0  0  0  0  0  0  0  0
   -3.3291    4.4964    8.2999 H   0  0  0  0  0  0  0  0  0  0  0  0
   -1.3466    4.1606    7.0457 H   0  0  0  0  0  0  0  0  0  0  0  0
   -0.2937    1.9096    7.0258 H   0  0  0  0  0  0  0  0  0  0  0  0
   -7.3660   -1.8167    5.3627 H   0  0  0  0  0  0  0  0  0  0  0  0
   -6.3212   -1.1568    6.6254 H   0  0  0  0  0  0  0  0  0  0  0  0
   -1.0041   -0.6582    3.1552 H   0  0  0  0  0  0  0  0  0  0  0  0
  1  2  1  0  0  0  0
  1 33  1  0  0  0  0
  1 34  1  0  0  0  0
  1 35  1  0  0  0  0
  2  3  1  0  0  0  0
  3  4  1  0  0  0  0
  3 32  2  0  0  0  0
  4  5  2  0  0  0  0
  4 36  1  0  0  0  0
  5  6  1  0  0  0  0
  5 37  1  0  0  0  0
  6  7  1  0  0  0  0
  6 31  2  0  0  0  0
  7  8  2  0  0  0  0
  8  9  1  0  0  0  0
  8 38  1  0  0  0  0
  9 10  1  0  0  0  0
  9 31  1  0  0  0  0
 10 11  2  0  0  0  0
 10 30  1  0  0  0  0
 11 12  1  0  0  0  0
 11 39  1  0  0  0  0
 12 13  1  0  0  0  0
 12 26  2  0  0  0  0
 13 14  1  0  0  0  0
 14 15  1  0  0  0  0
 14 16  1  0  0  0  0
 14 40  1  0  0  0  0
 15 41  1  0  0  0  0
 15 42  1  0  0  0  0
 15 43  1  0  0  0  0
 16 17  1  0  0  0  0
 16 21  2  0  0  0  0
 17 18  2  0  0  0  0
 17 44  1  0  0  0  0
 18 19  1  0  0  0  0
 18 45  1  0  0  0  0
 19 20  2  0  0  0  0
 19 46  1  0  0  0  0
 20 21  1  0  0  0  0
 20 47  1  0  0  0  0
 21 22  1  0  0  0  0
 22 23  1  0  0  0  0
 22 24  1  0  0  0  0
 22 25  1  0  0  0  0
 26 27  1  0  0  0  0
 26 30  1  0  0  0  0
 27 28  1  0  0  0  0
 27 29  2  0  0  0  0
 28 48  1  0  0  0  0
 28 49  1  0  0  0  0
 31 32  1  0  0  0  0
 32 50  1  0  0  0  0
M  END
