REMARK  Name = 
REMARK  8 active torsions:
REMARK  status: ('A' for Active; 'I' for Inactive)
REMARK    1  A    between atoms: C_1  and  O_2
REMARK    2  A    between atoms: O_2  and  C_3
REMARK    3  A    between atoms: N_9  and  C_10
REMARK    4  A    between atoms: C_12  and  O_13
REMARK    5  A    between atoms: O_13  and  C_14
REMARK    6  A    between atoms: C_14  and  C_15
REMARK    7  A    between atoms: C_14  and  C_16
REMARK    8  A    between atoms: C_23  and  C_24
REMARK                            x       y       z     vdW  Elec       q    Type
REMARK                         _______ _______ _______ _____ _____    ______ ____
ROOT
ATOM      1  C   UNL     1      -1.751   5.905  -1.504  0.00  0.00    +0.000 A 
ATOM      2  C   UNL     1      -2.293   6.524  -2.581  0.00  0.00    +0.000 A 
ATOM      3  C   UNL     1      -3.635   6.396  -2.447  0.00  0.00    +0.000 A 
ATOM      4  C   UNL     1      -3.856   5.740  -1.341  0.00  0.00    +0.000 A 
ATOM      5  S   UNL     1      -2.736   5.452  -0.778  0.00  0.00    +0.000 S 
ENDROOT
BRANCH   1  12
ATOM      6  C   UNL     1       0.947   2.319  -0.951  0.00  0.00    +0.000 A 
ATOM      7  C   UNL     1       2.235   2.658  -0.676  0.00  0.00    +0.000 A 
ATOM      8  C   UNL     1       2.627   3.949  -0.597  0.00  0.00    +0.000 A 
ATOM      9  C   UNL     1       1.694   4.970  -0.789  0.00  0.00    +0.000 A 
ATOM     10  N   UNL     1       1.741   6.312  -0.777  0.00  0.00    +0.000 NA
ATOM     11  C   UNL     1       0.532   6.772  -1.028  0.00  0.00    +0.000 A 
ATOM     12  N   UNL     1      -0.318   5.771  -1.206  0.00  0.00    +0.000 N 
ATOM     13  C   UNL     1       0.343   4.622  -1.071  0.00  0.00    +0.000 A 
ATOM     14  C   UNL     1      -0.005   3.257  -1.146  0.00  0.00    +0.000 A 
BRANCH   6  16
ATOM     15  C   UNL     1       1.078   0.032  -0.054  0.00  0.00    +0.000 C 
ATOM     16  O   UNL     1       0.604   0.943  -1.035  0.00  0.00    +0.000 OA
ENDBRANCH   6  16
ENDBRANCH   1  12
BRANCH   4  17
ATOM     17  C   UNL     1      -5.228   5.372  -0.800  0.00  0.00    +0.000 C 
ATOM     18  N   UNL     1      -6.438   5.761  -1.540  0.00  0.00    +0.000 N 
ATOM     19  O   UNL     1      -5.330   4.729   0.291  0.00  0.00    +0.000 OA
ATOM     20  H   UNL     1      -7.359   5.514  -1.177  0.00  0.00    +0.000 HD
ATOM     21  H   UNL     1      -6.357   6.277  -2.416  0.00  0.00    +0.000 HD
ENDBRANCH   4  17
BRANCH   3  22
ATOM     22  O   UNL     1      -4.620   6.886  -3.346  0.00  0.00    +0.000 OA
BRANCH  22  23
ATOM     23  C   UNL     1      -4.227   7.587  -4.517  0.00  0.00    +0.000 C 
ATOM     24  C   UNL     1      -3.439   8.826  -4.125  0.00  0.00    +0.000 C 
BRANCH  23  25
ATOM     25  C   UNL     1      -3.360   6.685  -5.380  0.00  0.00    +0.000 A 
ATOM     26  C   UNL     1      -2.423   7.180  -6.330  0.00  0.00    +0.000 A 
ATOM     27  C   UNL     1      -1.967   6.333  -7.353  0.00  0.00    +0.000 A 
ATOM     28  C   UNL     1      -2.176   5.051  -7.278  0.00  0.00    +0.000 A 
ATOM     29  C   UNL     1      -2.847   4.512  -6.172  0.00  0.00    +0.000 A 
ATOM     30  C   UNL     1      -3.566   5.369  -5.304  0.00  0.00    +0.000 A 
ATOM     31 CL   UNL     1      -4.725   4.702  -4.130  0.00  0.00    +0.000 Cl
ENDBRANCH  23  25
ENDBRANCH  22  23
ENDBRANCH   3  22
TORSDOF 6
