REMARK  Name = 
REMARK  9 active torsions:
REMARK  status: ('A' for Active; 'I' for Inactive)
REMARK    1  A    between atoms: C_1  and  O_2
REMARK    2  A    between atoms: O_2  and  C_3
REMARK    3  A    between atoms: N_9  and  C_10
REMARK    4  A    between atoms: C_12  and  O_13
REMARK    5  A    between atoms: O_13  and  C_14
REMARK    6  A    between atoms: C_14  and  C_15
REMARK    7  A    between atoms: C_14  and  C_16
REMARK    8  A    between atoms: C_21  and  C_22
REMARK    9  A    between atoms: C_26  and  C_27
REMARK                            x       y       z     vdW  Elec       q    Type
REMARK                         _______ _______ _______ _____ _____    ______ ____
ROOT
ATOM      1  C   UNL     1      -1.763   2.077   5.625  0.00  0.00    +0.000 A 
ATOM      2  C   UNL     1      -2.307   3.220   6.109  0.00  0.00    +0.000 A 
ATOM      3  C   UNL     1      -3.649   3.073   5.989  0.00  0.00    +0.000 A 
ATOM      4  C   UNL     1      -3.868   1.898   5.466  0.00  0.00    +0.000 A 
ATOM      5  S   UNL     1      -2.747   1.304   5.253  0.00  0.00    +0.000 S 
ENDROOT
BRANCH   1  12
ATOM      6  C   UNL     1       0.953   1.103   2.143  0.00  0.00    +0.000 A 
ATOM      7  C   UNL     1       2.238   0.870   2.519  0.00  0.00    +0.000 A 
ATOM      8  C   UNL     1       2.624   0.944   3.812  0.00  0.00    +0.000 A 
ATOM      9  C   UNL     1       1.686   1.256   4.798  0.00  0.00    +0.000 A 
ATOM     10  N   UNL     1       1.725   1.401   6.133  0.00  0.00    +0.000 NA
ATOM     11  C   UNL     1       0.514   1.706   6.553  0.00  0.00    +0.000 A 
ATOM     12  N   UNL     1      -0.330   1.765   5.534  0.00  0.00    +0.000 N 
ATOM     13  C   UNL     1       0.337   1.495   4.412  0.00  0.00    +0.000 A 
ATOM     14  C   UNL     1      -0.004   1.408   3.046  0.00  0.00    +0.000 A 
BRANCH   6  16
ATOM     15  C   UNL     1       1.084  -0.048  -0.027  0.00  0.00    +0.000 C 
ATOM     16  O   UNL     1       0.610   1.030   0.767  0.00  0.00    +0.000 OA
ENDBRANCH   6  16
ENDBRANCH   1  12
BRANCH   4  17
ATOM     17  C   UNL     1      -5.238   1.318   5.156  0.00  0.00    +0.000 C 
ATOM     18  N   UNL     1      -6.449   2.099   5.447  0.00  0.00    +0.000 N 
ATOM     19  O   UNL     1      -5.337   0.159   4.646  0.00  0.00    +0.000 OA
ATOM     20  H   UNL     1      -7.369   1.710   5.239  0.00  0.00    +0.000 HD
ATOM     21  H   UNL     1      -6.370   3.030   5.857  0.00  0.00    +0.000 HD
ENDBRANCH   4  17
BRANCH   3  22
ATOM     22  O   UNL     1      -4.636   4.024   6.364  0.00  0.00    +0.000 OA
BRANCH  22  23
ATOM     23  C   UNL     1      -4.246   5.269   6.924  0.00  0.00    +0.000 C 
ATOM     24  C   UNL     1      -3.465   5.026   8.205  0.00  0.00    +0.000 C 
BRANCH  23  25
ATOM     25  C   UNL     1      -3.371   6.019   5.932  0.00  0.00    +0.000 A 
ATOM     26  C   UNL     1      -3.382   7.441   5.949  0.00  0.00    +0.000 A 
ATOM     27  C   UNL     1      -2.928   8.147   4.823  0.00  0.00    +0.000 A 
ATOM     28  C   UNL     1      -2.256   7.530   3.896  0.00  0.00    +0.000 A 
ATOM     29  C   UNL     1      -1.975   6.164   4.023  0.00  0.00    +0.000 A 
ATOM     30  C   UNL     1      -2.676   5.392   4.982  0.00  0.00    +0.000 A 
BRANCH  30  31
ATOM     31  C   UNL     1      -2.636   3.873   4.929  0.00  0.00    +0.000 C 
ATOM     32  F   UNL     1      -3.132   3.457   3.767  0.00  0.00    +0.000 F 
ATOM     33  F   UNL     1      -1.379   3.458   5.048  0.00  0.00    +0.000 F 
ATOM     34  F   UNL     1      -3.364   3.376   5.924  0.00  0.00    +0.000 F 
ENDBRANCH  30  31
ENDBRANCH  23  25
ENDBRANCH  22  23
ENDBRANCH   3  22
TORSDOF 7
