REMARK  Name = 
REMARK  9 active torsions:
REMARK  status: ('A' for Active; 'I' for Inactive)
REMARK    1  A    between atoms: C_1  and  C_2
REMARK    2  A    between atoms: C_2  and  O_3
REMARK    3  A    between atoms: C_2  and  C_29
REMARK    4  A    between atoms: O_3  and  C_4
REMARK    5  A    between atoms: C_6  and  N_7
REMARK    6  A    between atoms: C_13  and  O_14
REMARK    7  A    between atoms: O_14  and  C_15
REMARK    8  A    between atoms: N_18  and  C_19
REMARK    9  A    between atoms: C_25  and  C_26
REMARK                            x       y       z     vdW  Elec       q    Type
REMARK                         _______ _______ _______ _____ _____    ______ ____
ROOT
ATOM      1  C   UNL     1       2.356   2.645   0.611  0.00  0.00    +0.000 A 
ATOM      2  C   UNL     1       3.269   1.796  -0.024  0.00  0.00    +0.000 A 
ATOM      3  C   UNL     1       4.564   2.254   0.054  0.00  0.00    +0.000 A 
ATOM      4  S   UNL     1       4.655   3.739   0.923  0.00  0.00    +0.000 S 
ATOM      5  C   UNL     1       2.951   3.739   1.160  0.00  0.00    +0.000 A 
ENDROOT
BRANCH   3   6
ATOM      6  N   UNL     1       5.723   1.565  -0.530  0.00  0.00    +0.000 N 
ATOM      7  C   UNL     1       5.860   1.299  -1.821  0.00  0.00    +0.000 A 
ATOM      8  N   UNL     1       7.015   0.707  -2.049  0.00  0.00    +0.000 NA
ATOM      9  C   UNL     1       7.661   0.574  -0.879  0.00  0.00    +0.000 A 
ATOM     10  C   UNL     1       8.890   0.040  -0.487  0.00  0.00    +0.000 A 
ATOM     11  C   UNL     1       9.251   0.072   0.815  0.00  0.00    +0.000 A 
ATOM     12  C   UNL     1       8.440   0.604   1.767  0.00  0.00    +0.000 A 
ATOM     13  C   UNL     1       7.239   1.137   1.455  0.00  0.00    +0.000 A 
ATOM     14  C   UNL     1       6.809   1.138   0.111  0.00  0.00    +0.000 A 
BRANCH  12  15
ATOM     15  O   UNL     1       8.865   0.598   3.122  0.00  0.00    +0.000 OA
BRANCH  15  16
ATOM     16  C   UNL     1      10.124   0.042   3.468  0.00  0.00    +0.000 C 
ATOM     17  C   UNL     1      11.376   0.625   2.865  0.00  0.00    +0.000 C 
ATOM     18  C   UNL     1      11.435   0.277   1.382  0.00  0.00    +0.000 C 
ATOM     19  N   UNL     1      11.397  -1.173   1.177  0.00  0.00    +0.000 NA
ATOM     20  C   UNL     1      11.443  -1.464  -0.259  0.00  0.00    +0.000 C 
ATOM     21  C   UNL     1      10.177  -1.742   1.761  0.00  0.00    +0.000 C 
ATOM     22  C   UNL     1      10.083  -1.453   3.258  0.00  0.00    +0.000 C 
ENDBRANCH  15  16
ENDBRANCH  12  15
ENDBRANCH   3   6
BRANCH   5  23
ATOM     23  C   UNL     1       2.197   4.833   1.897  0.00  0.00    +0.000 C 
ATOM     24  N   UNL     1       2.927   5.979   2.458  0.00  0.00    +0.000 N 
ATOM     25  O   UNL     1       0.935   4.758   2.029  0.00  0.00    +0.000 OA
ATOM     26  H   UNL     1       2.421   6.714   2.953  0.00  0.00    +0.000 HD
ATOM     27  H   UNL     1       3.940   6.040   2.352  0.00  0.00    +0.000 HD
ENDBRANCH   5  23
BRANCH   1  28
ATOM     28  O   UNL     1       0.960   2.394   0.674  0.00  0.00    +0.000 OA
BRANCH  28  30
ATOM     29  C   UNL     1       0.993   0.097  -0.024  0.00  0.00    +0.000 C 
ATOM     30  C   UNL     1       0.487   1.096   1.003  0.00  0.00    +0.000 C 
BRANCH  30  31
ATOM     31  C   UNL     1      -1.033   1.096   1.003  0.00  0.00    +0.000 A 
ATOM     32  C   UNL     1      -1.757  -0.127   1.078  0.00  0.00    +0.000 A 
ATOM     33  C   UNL     1      -3.129  -0.134   0.779  0.00  0.00    +0.000 A 
ATOM     34  C   UNL     1      -3.786   0.986   0.705  0.00  0.00    +0.000 A 
ATOM     35  C   UNL     1      -3.128   2.202   0.934  0.00  0.00    +0.000 A 
ATOM     36  C   UNL     1      -1.712   2.243   0.932  0.00  0.00    +0.000 A 
ATOM     37 CL   UNL     1      -0.852   3.798   0.838  0.00  0.00    +0.000 Cl
ENDBRANCH  30  31
ENDBRANCH  28  30
ENDBRANCH   1  28
TORSDOF 7
