REMARK  Name = 
REMARK  11 active torsions:
REMARK  status: ('A' for Active; 'I' for Inactive)
REMARK    1  A    between atoms: C_1  and  C_2
REMARK    2  A    between atoms: C_2  and  N_3
REMARK    3  A    between atoms: C_4  and  C_5
REMARK    4  A    between atoms: C_13  and  C_14
REMARK    5  A    between atoms: C_15  and  C_16
REMARK    6  A    between atoms: C_16  and  C_17
REMARK    7  A    between atoms: C_16  and  C_18
REMARK    8  A    between atoms: C_16  and  O_19
REMARK    9  A    between atoms: C_22  and  O_23
REMARK   10  A    between atoms: O_23  and  C_24
REMARK   11  A    between atoms: C_24  and  C_25
REMARK                            x       y       z     vdW  Elec       q    Type
REMARK                         _______ _______ _______ _____ _____    ______ ____
ROOT
ATOM      1  N   UNL     1       0.904  -2.315   0.643  0.00  0.00    +0.000 N 
ATOM      2  C   UNL     1       1.487  -2.099   1.805  0.00  0.00    +0.000 A 
ATOM      3  N   UNL     1       1.604  -3.231   2.483  0.00  0.00    +0.000 NA
ATOM      4  C   UNL     1       1.085  -4.219   1.756  0.00  0.00    +0.000 A 
ATOM      5  C   UNL     1       0.920  -5.609   1.935  0.00  0.00    +0.000 A 
ATOM      6  N   UNL     1       0.331  -6.337   0.962  0.00  0.00    +0.000 NA
ATOM      7  C   UNL     1      -0.102  -5.764  -0.192  0.00  0.00    +0.000 A 
ATOM      8  C   UNL     1       0.024  -4.437  -0.417  0.00  0.00    +0.000 A 
ATOM      9  C   UNL     1       0.624  -3.625   0.548  0.00  0.00    +0.000 A 
ENDROOT
BRANCH   2  10
ATOM     10  C   UNL     1       1.960  -0.741   2.297  0.00  0.00    +0.000 A 
ATOM     11  N   UNL     1       3.658  -0.272   2.580  0.00  0.00    +0.000 NA
ATOM     12  O   UNL     1       3.404   1.394   2.988  0.00  0.00    +0.000 OA
ATOM     13  N   UNL     1       2.054   1.534   2.897  0.00  0.00    +0.000 NA
ATOM     14  C   UNL     1       1.291   0.452   2.537  0.00  0.00    +0.000 A 
ATOM     15  N   UNL     1      -0.170   0.550   2.412  0.00  0.00    +0.000 N 
ATOM     16  H   UNL     1      -0.639   1.438   2.594  0.00  0.00    +0.000 HD
ATOM     17  H   UNL     1      -0.716  -0.269   2.143  0.00  0.00    +0.000 HD
ENDBRANCH   2  10
BRANCH   1  19
ATOM     18  C   UNL     1       0.920   0.049   0.035  0.00  0.00    +0.000 C 
ATOM     19  C   UNL     1       0.414  -1.335  -0.336  0.00  0.00    +0.000 C 
ENDBRANCH   1  19
BRANCH   5  20
ATOM     20  C   UNL     1       1.401  -6.280   3.211  0.00  0.00    +0.000 C 
ATOM     21  C   UNL     1       1.813  -6.856   4.306  0.00  0.00    +0.000 C 
BRANCH  21  22
ATOM     22  C   UNL     1       2.294  -7.527   5.582  0.00  0.00    +0.000 C 
ATOM     23  C   UNL     1       2.527  -6.473   6.652  0.00  0.00    +0.000 C 
ATOM     24  C   UNL     1       1.242  -8.514   6.063  0.00  0.00    +0.000 C 
BRANCH  22  25
ATOM     25  O   UNL     1       3.508  -8.217   5.325  0.00  0.00    +0.000 OA
ATOM     26  H   UNL     1       3.825  -8.659   6.165  0.00  0.00    +0.000 HD
ENDBRANCH  22  25
ENDBRANCH  21  22
ENDBRANCH   5  20
BRANCH   8  27
ATOM     27  O   UNL     1      -0.450  -3.872  -1.630  0.00  0.00    +0.000 OA
BRANCH  27  28
ATOM     28  C   UNL     1      -1.059  -4.700  -2.609  0.00  0.00    +0.000 C 
BRANCH  28  29
ATOM     29  C   UNL     1      -0.069  -5.761  -3.062  0.00  0.00    +0.000 C 
ATOM     30  C   UNL     1      -0.166  -6.819  -4.159  0.00  0.00    +0.000 C 
ATOM     31  C   UNL     1      -0.956  -8.019  -3.683  0.00  0.00    +0.000 C 
ATOM     32  N   UNL     1      -0.339  -8.599  -2.484  0.00  0.00    +0.000 NA
ATOM     33  C   UNL     1      -0.360  -7.616  -1.403  0.00  0.00    +0.000 C 
ATOM     34  C   UNL     1       0.455  -6.387  -1.770  0.00  0.00    +0.000 C 
ATOM     35  H   UNL     1      -0.861  -9.428  -2.200  0.00  0.00    +0.000 HD
ENDBRANCH  28  29
ENDBRANCH  27  28
ENDBRANCH   8  27
TORSDOF 8
