REMARK  Name = 
REMARK  11 active torsions:
REMARK  status: ('A' for Active; 'I' for Inactive)
REMARK    1  A    between atoms: C_1  and  C_2
REMARK    2  A    between atoms: C_2  and  N_3
REMARK    3  A    between atoms: C_4  and  C_5
REMARK    4  A    between atoms: C_13  and  C_14
REMARK    5  A    between atoms: C_15  and  C_16
REMARK    6  A    between atoms: C_16  and  C_17
REMARK    7  A    between atoms: C_16  and  C_18
REMARK    8  A    between atoms: C_16  and  O_19
REMARK    9  A    between atoms: C_22  and  O_23
REMARK   10  A    between atoms: O_23  and  C_24
REMARK   11  A    between atoms: C_24  and  C_25
REMARK                            x       y       z     vdW  Elec       q    Type
REMARK                         _______ _______ _______ _____ _____    ______ ____
ROOT
ATOM      1  N   UNL     1       1.022  -1.784   1.664  0.00  0.00    +0.000 N 
ATOM      2  C   UNL     1       1.448  -0.938   2.579  0.00  0.00    +0.000 A 
ATOM      3  N   UNL     1       1.741  -1.577   3.702  0.00  0.00    +0.000 NA
ATOM      4  C   UNL     1       1.500  -2.876   3.527  0.00  0.00    +0.000 A 
ATOM      5  C   UNL     1       1.613  -4.028   4.334  0.00  0.00    +0.000 A 
ATOM      6  N   UNL     1       1.271  -5.231   3.822  0.00  0.00    +0.000 NA
ATOM      7  C   UNL     1       0.826  -5.360   2.545  0.00  0.00    +0.000 A 
ATOM      8  C   UNL     1       0.693  -4.292   1.728  0.00  0.00    +0.000 A 
ATOM      9  C   UNL     1       1.028  -3.018   2.192  0.00  0.00    +0.000 A 
ENDROOT
BRANCH   2  10
ATOM     10  C   UNL     1       1.587   0.562   2.375  0.00  0.00    +0.000 A 
ATOM     11  N   UNL     1       3.049   1.564   2.575  0.00  0.00    +0.000 NA
ATOM     12  O   UNL     1       2.350   3.115   2.241  0.00  0.00    +0.000 OA
ATOM     13  N   UNL     1       1.046   2.821   1.992  0.00  0.00    +0.000 NA
ATOM     14  C   UNL     1       0.631   1.515   2.049  0.00  0.00    +0.000 A 
ATOM     15  N   UNL     1      -0.764   1.140   1.778  0.00  0.00    +0.000 N 
ATOM     16  H   UNL     1      -1.448   1.859   1.541  0.00  0.00    +0.000 HD
ATOM     17  H   UNL     1      -1.049   0.162   1.827  0.00  0.00    +0.000 HD
ENDBRANCH   2  10
BRANCH   1  19
ATOM     18  C   UNL     1       1.038  -0.063  -0.068  0.00  0.00    +0.000 C 
ATOM     19  C   UNL     1       0.531  -1.442   0.321  0.00  0.00    +0.000 C 
ENDBRANCH   1  19
BRANCH   5  20
ATOM     20  C   UNL     1       2.115  -3.917   5.764  0.00  0.00    +0.000 C 
ATOM     21  C   UNL     1       2.545  -3.822   6.991  0.00  0.00    +0.000 C 
BRANCH  21  22
ATOM     22  C   UNL     1       3.047  -3.711   8.422  0.00  0.00    +0.000 C 
ATOM     23  C   UNL     1       3.360  -2.257   8.738  0.00  0.00    +0.000 C 
ATOM     24  C   UNL     1       1.977  -4.218   9.375  0.00  0.00    +0.000 C 
BRANCH  22  25
ATOM     25  O   UNL     1       4.223  -4.492   8.573  0.00  0.00    +0.000 OA
ATOM     26  H   UNL     1       4.553  -4.419   9.514  0.00  0.00    +0.000 HD
ENDBRANCH  22  25
ENDBRANCH  21  22
ENDBRANCH   5  20
BRANCH   8  27
ATOM     27  O   UNL     1       0.214  -4.463   0.402  0.00  0.00    +0.000 OA
BRANCH  27  28
ATOM     28  C   UNL     1      -0.126  -5.760  -0.068  0.00  0.00    +0.000 C 
BRANCH  28  29
ATOM     29  C   UNL     1       1.097  -6.660   0.001  0.00  0.00    +0.000 C 
ATOM     30  C   UNL     1       1.712  -5.445  -0.690  0.00  0.00    +0.000 C 
ATOM     31  C   UNL     1       1.390  -5.444  -2.169  0.00  0.00    +0.000 C 
ATOM     32  N   UNL     1       1.877  -6.677  -2.802  0.00  0.00    +0.000 NA
ATOM     33  C   UNL     1       1.193  -7.827  -2.214  0.00  0.00    +0.000 C 
ATOM     34  C   UNL     1       1.498  -7.941  -0.729  0.00  0.00    +0.000 C 
ATOM     35  H   UNL     1       1.688  -6.643  -3.803  0.00  0.00    +0.000 HD
ENDBRANCH  28  29
ENDBRANCH  27  28
ENDBRANCH   8  27
TORSDOF 8
