REMARK  Name = 
REMARK  9 active torsions:
REMARK  status: ('A' for Active; 'I' for Inactive)
REMARK    1  A    between atoms: C_1  and  C_2
REMARK    2  A    between atoms: C_2  and  O_3
REMARK    3  A    between atoms: C_2  and  C_29
REMARK    4  A    between atoms: O_3  and  C_4
REMARK    5  A    between atoms: C_6  and  N_7
REMARK    6  A    between atoms: C_13  and  O_14
REMARK    7  A    between atoms: O_14  and  C_15
REMARK    8  A    between atoms: N_18  and  C_19
REMARK    9  A    between atoms: C_25  and  C_26
REMARK                            x       y       z     vdW  Elec       q    Type
REMARK                         _______ _______ _______ _____ _____    ______ ____
ROOT
ATOM      1  C   UNL     1       2.372  -0.312  -2.511  0.00  0.00    +0.000 A 
ATOM      2  C   UNL     1       3.284  -0.589  -1.487  0.00  0.00    +0.000 A 
ATOM      3  C   UNL     1       4.579  -0.686  -1.941  0.00  0.00    +0.000 A 
ATOM      4  S   UNL     1       4.671  -0.427  -3.642  0.00  0.00    +0.000 S 
ATOM      5  C   UNL     1       2.967  -0.205  -3.729  0.00  0.00    +0.000 A 
ENDROOT
BRANCH   3   6
ATOM      6  N   UNL     1       5.738  -0.975  -1.084  0.00  0.00    +0.000 N 
ATOM      7  C   UNL     1       5.898  -2.068  -0.352  0.00  0.00    +0.000 A 
ATOM      8  N   UNL     1       7.033  -2.014   0.315  0.00  0.00    +0.000 NA
ATOM      9  C   UNL     1       7.643  -0.855   0.019  0.00  0.00    +0.000 A 
ATOM     10  C   UNL     1       8.839  -0.244   0.402  0.00  0.00    +0.000 A 
ATOM     11  C   UNL     1       9.166   0.966  -0.103  0.00  0.00    +0.000 A 
ATOM     12  C   UNL     1       8.353   1.619  -0.974  0.00  0.00    +0.000 A 
ATOM     13  C   UNL     1       7.183   1.084  -1.386  0.00  0.00    +0.000 A 
ATOM     14  C   UNL     1       6.789  -0.179  -0.897  0.00  0.00    +0.000 A 
BRANCH  12  15
ATOM     15  O   UNL     1       8.742   2.894  -1.463  0.00  0.00    +0.000 OA
BRANCH  15  16
ATOM     16  C   UNL     1       9.969   3.472  -1.041  0.00  0.00    +0.000 C 
ATOM     17  C   UNL     1      11.110   2.568  -1.431  0.00  0.00    +0.000 C 
ATOM     18  C   UNL     1      11.143   1.361  -0.500  0.00  0.00    +0.000 C 
ATOM     19  N   UNL     1      11.274   1.775   0.898  0.00  0.00    +0.000 NA
ATOM     20  C   UNL     1      11.289   0.588   1.759  0.00  0.00    +0.000 C 
ATOM     21  C   UNL     1      10.162   2.653   1.280  0.00  0.00    +0.000 C 
ATOM     22  C   UNL     1      10.102   3.900   0.401  0.00  0.00    +0.000 C 
ENDBRANCH  15  16
ENDBRANCH  12  15
ENDBRANCH   3   6
BRANCH   5  23
ATOM     23  C   UNL     1       2.214   0.076  -5.019  0.00  0.00    +0.000 C 
ATOM     24  N   UNL     1       2.945   0.174  -6.291  0.00  0.00    +0.000 N 
ATOM     25  O   UNL     1       0.952   0.228  -4.998  0.00  0.00    +0.000 OA
ATOM     26  H   UNL     1       2.440   0.363  -7.156  0.00  0.00    +0.000 HD
ATOM     27  H   UNL     1       3.958   0.053  -6.308  0.00  0.00    +0.000 HD
ENDBRANCH   5  23
BRANCH   1  28
ATOM     28  O   UNL     1       0.976  -0.160  -2.300  0.00  0.00    +0.000 OA
BRANCH  28  30
ATOM     29  C   UNL     1       1.009   0.037   0.092  0.00  0.00    +0.000 C 
ATOM     30  C   UNL     1       0.503   0.624  -1.215  0.00  0.00    +0.000 C 
BRANCH  30  31
ATOM     31  C   UNL     1      -1.017   0.624  -1.215  0.00  0.00    +0.000 A 
ATOM     32  C   UNL     1      -1.741  -0.599  -1.137  0.00  0.00    +0.000 A 
ATOM     33  C   UNL     1      -3.114  -0.607  -1.435  0.00  0.00    +0.000 A 
ATOM     34  C   UNL     1      -3.770   0.513  -1.512  0.00  0.00    +0.000 A 
ATOM     35  C   UNL     1      -3.112   1.729  -1.288  0.00  0.00    +0.000 A 
ATOM     36  C   UNL     1      -1.696   1.770  -1.289  0.00  0.00    +0.000 A 
ATOM     37 CL   UNL     1      -0.836   3.325  -1.387  0.00  0.00    +0.000 Cl
ENDBRANCH  30  31
ENDBRANCH  28  30
ENDBRANCH   1  28
TORSDOF 7
