REMARK  Name = 
REMARK  11 active torsions:
REMARK  status: ('A' for Active; 'I' for Inactive)
REMARK    1  A    between atoms: C_1  and  C_2
REMARK    2  A    between atoms: C_2  and  N_3
REMARK    3  A    between atoms: C_4  and  C_5
REMARK    4  A    between atoms: C_13  and  C_14
REMARK    5  A    between atoms: C_15  and  C_16
REMARK    6  A    between atoms: C_16  and  N_17
REMARK    7  A    between atoms: C_20  and  O_21
REMARK    8  A    between atoms: O_21  and  C_22
REMARK    9  A    between atoms: C_22  and  C_23
REMARK   10  A    between atoms: C_23  and  C_24
REMARK   11  A    between atoms: C_24  and  N_25
REMARK                            x       y       z     vdW  Elec       q    Type
REMARK                         _______ _______ _______ _____ _____    ______ ____
ROOT
ATOM      1  N   UNL     1       1.029  -1.598   1.791  0.00  0.00    +0.000 N 
ATOM      2  C   UNL     1       1.448  -0.730   2.690  0.00  0.00    +0.000 A 
ATOM      3  N   UNL     1       1.752  -1.345   3.823  0.00  0.00    +0.000 NA
ATOM      4  C   UNL     1       1.529  -2.650   3.672  0.00  0.00    +0.000 A 
ATOM      5  C   UNL     1       1.661  -3.786   4.499  0.00  0.00    +0.000 A 
ATOM      6  N   UNL     1       1.333  -5.002   4.010  0.00  0.00    +0.000 NA
ATOM      7  C   UNL     1       0.886  -5.160   2.737  0.00  0.00    +0.000 A 
ATOM      8  C   UNL     1       0.735  -4.108   1.901  0.00  0.00    +0.000 A 
ATOM      9  C   UNL     1       1.054  -2.822   2.342  0.00  0.00    +0.000 A 
ENDROOT
BRANCH   2  10
ATOM     10  C   UNL     1       1.565   0.768   2.459  0.00  0.00    +0.000 A 
ATOM     11  N   UNL     1       3.008   1.800   2.644  0.00  0.00    +0.000 NA
ATOM     12  O   UNL     1       2.281   3.333   2.287  0.00  0.00    +0.000 OA
ATOM     13  N   UNL     1       0.982   3.011   2.043  0.00  0.00    +0.000 NA
ATOM     14  C   UNL     1       0.591   1.698   2.120  0.00  0.00    +0.000 A 
ATOM     15  N   UNL     1      -0.797   1.293   1.854  0.00  0.00    +0.000 N 
ATOM     16  H   UNL     1      -1.494   1.995   1.607  0.00  0.00    +0.000 HD
ATOM     17  H   UNL     1      -1.063   0.310   1.917  0.00  0.00    +0.000 HD
ENDBRANCH   2  10
BRANCH   1  19
ATOM     18  C   UNL     1       1.046   0.086   0.023  0.00  0.00    +0.000 C 
ATOM     19  C   UNL     1       0.539  -1.285   0.441  0.00  0.00    +0.000 C 
ENDBRANCH   1  19
BRANCH   5  20
ATOM     20  C   UNL     1       2.166  -3.643   5.925  0.00  0.00    +0.000 C 
ATOM     21  C   UNL     1       2.599  -3.520   7.149  0.00  0.00    +0.000 C 
BRANCH  21  22
ATOM     22  C   UNL     1       3.104  -3.377   8.575  0.00  0.00    +0.000 C 
BRANCH  22  23
ATOM     23  N   UNL     1       3.984  -2.202   8.668  0.00  0.00    +0.000 NA
ATOM     24  H   UNL     1       4.323  -2.106   9.625  0.00  0.00    +0.000 HD
ATOM     25  H   UNL     1       4.776  -2.321   8.037  0.00  0.00    +0.000 HD
ENDBRANCH  22  23
ENDBRANCH  21  22
ENDBRANCH   5  20
BRANCH   8  26
ATOM     26  O   UNL     1       0.254  -4.310   0.581  0.00  0.00    +0.000 OA
BRANCH  26  27
ATOM     27  C   UNL     1      -0.070  -5.619   0.135  0.00  0.00    +0.000 C 
BRANCH  27  28
ATOM     28  C   UNL     1       1.165  -6.501   0.215  0.00  0.00    +0.000 C 
BRANCH  28  29
ATOM     29  C   UNL     1       1.653  -6.562   1.653  0.00  0.00    +0.000 C 
BRANCH  29  30
ATOM     30  N   UNL     1       0.594  -7.122   2.506  0.00  0.00    +0.000 NA
ATOM     31  H   UNL     1       0.921  -7.162   3.472  0.00  0.00    +0.000 HD
ATOM     32  H   UNL     1      -0.234  -6.529   2.453  0.00  0.00    +0.000 HD
ENDBRANCH  29  30
ENDBRANCH  28  29
ENDBRANCH  27  28
ENDBRANCH  26  27
ENDBRANCH   8  26
TORSDOF 10
