
 OpenBabel03132512093D

 62 66  0  0  0  0  0  0  0  0999 V2000
    0.9933    0.0968   -0.0242 C   0  0  0  0  0  0  0  0  0  0  0  0
    0.4866    1.0961    1.0030 C   0  0  0  0  0  0  0  0  0  0  0  0
    0.9600    2.3939    0.6744 O   0  0  0  0  0  0  0  0  0  0  0  0
    2.3560    2.6454    0.6107 C   0  0  0  0  0  0  0  0  0  0  0  0
    3.2689    1.7959   -0.0236 C   0  0  0  0  0  0  0  0  0  0  0  0
    4.5635    2.2544    0.0542 C   0  0  0  0  0  0  0  0  0  0  0  0
    5.7226    1.5645   -0.5300 N   0  0  0  0  0  0  0  0  0  0  0  0
    5.8604    1.2986   -1.8206 C   0  0  0  0  0  0  0  0  0  0  0  0
    7.0150    0.7067   -2.0490 N   0  0  0  0  0  0  0  0  0  0  0  0
    7.6611    0.5737   -0.8795 C   0  0  0  0  0  0  0  0  0  0  0  0
    8.8904    0.0400   -0.4875 C   0  0  0  0  0  0  0  0  0  0  0  0
    9.2506    0.0719    0.8150 C   0  0  0  0  0  0  0  0  0  0  0  0
    8.4396    0.6037    1.7670 C   0  0  0  0  0  0  0  0  0  0  0  0
    8.8649    0.5983    3.1218 O   0  0  0  0  0  0  0  0  0  0  0  0
   10.1244    0.0416    3.4683 C   0  0  0  0  0  0  0  0  0  0  0  0
   11.3759    0.6250    2.8654 C   0  0  0  0  0  0  0  0  0  0  0  0
   11.4350    0.2773    1.3819 C   0  0  0  0  0  0  0  0  0  0  0  0
   11.3969   -1.1726    1.1770 N   0  0  0  0  0  0  0  0  0  0  0  0
   11.4434   -1.4635   -0.2593 C   0  0  0  0  0  0  0  0  0  0  0  0
   10.1771   -1.7420    1.7612 C   0  0  0  0  0  0  0  0  0  0  0  0
   10.0827   -1.4534    3.2580 C   0  0  0  0  0  0  0  0  0  0  0  0
    7.2385    1.1373    1.4552 C   0  0  0  0  0  0  0  0  0  0  0  0
    6.8095    1.1378    0.1114 C   0  0  0  0  0  0  0  0  0  0  0  0
    4.6547    3.7393    0.9229 S   0  0  0  0  0  0  0  0  0  0  0  0
    2.9507    3.7389    1.1599 C   0  0  0  0  0  0  0  0  0  0  0  0
    2.1968    4.8335    1.8974 C   0  0  0  0  0  0  0  0  0  0  0  0
    2.9272    5.9794    2.4580 N   0  0  0  0  0  0  0  0  0  0  0  0
    0.9350    4.7579    2.0294 O   0  0  0  0  0  0  0  0  0  0  0  0
   -1.0334    1.0961    1.0030 C   0  0  0  0  0  0  0  0  0  0  0  0
   -1.7571   -0.1265    1.0783 C   0  0  0  0  0  0  0  0  0  0  0  0
   -3.1294   -0.1344    0.7795 C   0  0  0  0  0  0  0  0  0  0  0  0
   -3.7856    0.9861    0.7053 C   0  0  0  0  0  0  0  0  0  0  0  0
   -3.1276    2.2019    0.9337 C   0  0  0  0  0  0  0  0  0  0  0  0
   -1.7120    2.2425    0.9324 C   0  0  0  0  0  0  0  0  0  0  0  0
   -0.8520    3.7981    0.8381 Cl  0  0  0  0  0  0  0  0  0  0  0  0
    0.6366    0.3713   -0.9949 H   0  0  0  0  0  0  0  0  0  0  0  0
    0.6366   -0.8811    0.2235 H   0  0  0  0  0  0  0  0  0  0  0  0
    2.0633    0.0968   -0.0242 H   0  0  0  0  0  0  0  0  0  0  0  0
    0.8433    0.8216    1.9738 H   0  0  0  0  0  0  0  0  0  0  0  0
    2.9901    0.8877   -0.5159 H   0  0  0  0  0  0  0  0  0  0  0  0
    5.1355    1.5320   -2.5722 H   0  0  0  0  0  0  0  0  0  0  0  0
    9.5446   -0.3927   -1.2152 H   0  0  0  0  0  0  0  0  0  0  0  0
   10.1985   -0.3318    1.1038 H   0  0  0  0  0  0  0  0  0  0  0  0
   10.2346    0.3180    4.4961 H   0  0  0  0  0  0  0  0  0  0  0  0
   12.2331    0.2197    3.3612 H   0  0  0  0  0  0  0  0  0  0  0  0
   11.3659    1.6885    2.9824 H   0  0  0  0  0  0  0  0  0  0  0  0
   12.3536    0.6526    0.9817 H   0  0  0  0  0  0  0  0  0  0  0  0
   10.5982    0.7223    0.8853 H   0  0  0  0  0  0  0  0  0  0  0  0
   11.4412   -2.5230   -0.4089 H   0  0  0  0  0  0  0  0  0  0  0  0
   10.5884   -1.0339   -0.7381 H   0  0  0  0  0  0  0  0  0  0  0  0
   12.3347   -1.0460   -0.6792 H   0  0  0  0  0  0  0  0  0  0  0  0
    9.3341   -1.2921    1.2798 H   0  0  0  0  0  0  0  0  0  0  0  0
   10.1823   -2.8015    1.6115 H   0  0  0  0  0  0  0  0  0  0  0  0
   10.9007   -1.9157    3.7699 H   0  0  0  0  0  0  0  0  0  0  0  0
    9.1644   -1.8453    3.6427 H   0  0  0  0  0  0  0  0  0  0  0  0
    6.6184    1.5557    2.2203 H   0  0  0  0  0  0  0  0  0  0  0  0
    2.4213    6.7139    2.9529 H   0  0  0  0  0  0  0  0  0  0  0  0
    3.9398    6.0400    2.3521 H   0  0  0  0  0  0  0  0  0  0  0  0
   -1.2606   -1.0315    1.3600 H   0  0  0  0  0  0  0  0  0  0  0  0
   -3.6352   -1.0624    0.6129 H   0  0  0  0  0  0  0  0  0  0  0  0
   -4.8293    0.9794    0.4696 H   0  0  0  0  0  0  0  0  0  0  0  0
   -3.6913    3.0945    1.1080 H   0  0  0  0  0  0  0  0  0  0  0  0
  1  2  1  0  0  0  0
  1 36  1  0  0  0  0
  1 37  1  0  0  0  0
  1 38  1  0  0  0  0
  2  3  1  0  0  0  0
  2 29  1  0  0  0  0
  2 39  1  0  0  0  0
  3  4  1  0  0  0  0
  4  5  1  0  0  0  0
  4 25  2  0  0  0  0
  5  6  2  0  0  0  0
  5 40  1  0  0  0  0
  6  7  1  0  0  0  0
  6 24  1  0  0  0  0
  7  8  1  0  0  0  0
  7 23  1  0  0  0  0
  8  9  2  0  0  0  0
  8 41  1  0  0  0  0
  9 10  1  0  0  0  0
 10 11  1  0  0  0  0
 10 23  2  0  0  0  0
 11 12  2  0  0  0  0
 11 42  1  0  0  0  0
 12 13  1  0  0  0  0
 12 43  1  0  0  0  0
 13 14  1  0  0  0  0
 13 22  2  0  0  0  0
 14 15  1  0  0  0  0
 15 16  1  0  0  0  0
 15 21  1  0  0  0  0
 15 44  1  0  0  0  0
 16 17  1  0  0  0  0
 16 45  1  0  0  0  0
 16 46  1  0  0  0  0
 17 18  1  0  0  0  0
 17 47  1  0  0  0  0
 17 48  1  0  0  0  0
 18 19  1  0  0  0  0
 18 20  1  0  0  0  0
 19 49  1  0  0  0  0
 19 50  1  0  0  0  0
 19 51  1  0  0  0  0
 20 21  1  0  0  0  0
 20 52  1  0  0  0  0
 20 53  1  0  0  0  0
 21 54  1  0  0  0  0
 21 55  1  0  0  0  0
 22 23  1  0  0  0  0
 22 56  1  0  0  0  0
 24 25  1  0  0  0  0
 25 26  1  0  0  0  0
 26 27  1  0  0  0  0
 26 28  2  0  0  0  0
 27 57  1  0  0  0  0
 27 58  1  0  0  0  0
 29 30  1  0  0  0  0
 29 34  2  0  0  0  0
 30 31  2  0  0  0  0
 30 59  1  0  0  0  0
 31 32  1  0  0  0  0
 31 60  1  0  0  0  0
 32 33  2  0  0  0  0
 32 61  1  0  0  0  0
 33 34  1  0  0  0  0
 33 62  1  0  0  0  0
 34 35  1  0  0  0  0
M  END
