REMARK  Name = 
REMARK  11 active torsions:
REMARK  status: ('A' for Active; 'I' for Inactive)
REMARK    1  A    between atoms: C_1  and  C_2
REMARK    2  A    between atoms: C_2  and  N_3
REMARK    3  A    between atoms: C_4  and  C_5
REMARK    4  A    between atoms: C_13  and  C_14
REMARK    5  A    between atoms: C_15  and  C_16
REMARK    6  A    between atoms: C_16  and  C_17
REMARK    7  A    between atoms: C_16  and  C_18
REMARK    8  A    between atoms: C_16  and  O_19
REMARK    9  A    between atoms: C_22  and  O_23
REMARK   10  A    between atoms: O_23  and  C_24
REMARK   11  A    between atoms: C_24  and  C_25
REMARK                            x       y       z     vdW  Elec       q    Type
REMARK                         _______ _______ _______ _____ _____    ______ ____
ROOT
ATOM      1  N   UNL     1       0.924  -1.356   1.994  0.00  0.00    +0.000 N 
ATOM      2  C   UNL     1       1.214  -0.313   2.745  0.00  0.00    +0.000 A 
ATOM      3  N   UNL     1       1.629  -0.702   3.941  0.00  0.00    +0.000 NA
ATOM      4  C   UNL     1       1.613  -2.033   3.985  0.00  0.00    +0.000 A 
ATOM      5  C   UNL     1       1.935  -3.003   4.958  0.00  0.00    +0.000 A 
ATOM      6  N   UNL     1       1.796  -4.313   4.659  0.00  0.00    +0.000 NA
ATOM      7  C   UNL     1       1.361  -4.722   3.439  0.00  0.00    +0.000 A 
ATOM      8  C   UNL     1       1.033  -3.839   2.470  0.00  0.00    +0.000 A 
ATOM      9  C   UNL     1       1.151  -2.469   2.712  0.00  0.00    +0.000 A 
ENDROOT
BRANCH   2  10
ATOM     10  C   UNL     1       1.089   1.135   2.300  0.00  0.00    +0.000 A 
ATOM     11  N   UNL     1       2.307   2.439   2.303  0.00  0.00    +0.000 NA
ATOM     12  O   UNL     1       1.294   3.744   1.775  0.00  0.00    +0.000 OA
ATOM     13  N   UNL     1       0.080   3.151   1.617  0.00  0.00    +0.000 NA
ATOM     14  C   UNL     1      -0.048   1.809   1.875  0.00  0.00    +0.000 A 
ATOM     15  N   UNL     1      -1.334   1.115   1.709  0.00  0.00    +0.000 N 
ATOM     16  H   UNL     1      -2.155   1.632   1.396  0.00  0.00    +0.000 HD
ATOM     17  H   UNL     1      -1.404   0.117   1.907  0.00  0.00    +0.000 HD
ENDBRANCH   2  10
BRANCH   1  19
ATOM     18  C   UNL     1       0.941  -0.047  -0.066  0.00  0.00    +0.000 C 
ATOM     19  C   UNL     1       0.434  -1.311   0.609  0.00  0.00    +0.000 C 
ENDBRANCH   1  19
BRANCH   5  20
ATOM     20  C   UNL     1       2.432  -2.577   6.330  0.00  0.00    +0.000 C 
ATOM     21  C   UNL     1       2.859  -2.212   7.507  0.00  0.00    +0.000 C 
BRANCH  21  22
ATOM     22  C   UNL     1       3.356  -1.786   8.879  0.00  0.00    +0.000 C 
ATOM     23  C   UNL     1       3.998  -0.412   8.781  0.00  0.00    +0.000 C 
ATOM     24  C   UNL     1       2.186  -1.732   9.847  0.00  0.00    +0.000 C 
BRANCH  22  25
ATOM     25  O   UNL     1       4.314  -2.724   9.347  0.00  0.00    +0.000 OA
ATOM     26  H   UNL     1       4.642  -2.444  10.249  0.00  0.00    +0.000 HD
ENDBRANCH  22  25
ENDBRANCH  21  22
ENDBRANCH   5  20
BRANCH   8  27
ATOM     27  O   UNL     1       0.570  -4.303   1.210  0.00  0.00    +0.000 OA
BRANCH  27  28
ATOM     28  C   UNL     1       0.450  -5.696   0.967  0.00  0.00    +0.000 C 
BRANCH  28  29
ATOM     29  C   UNL     1       1.810  -6.356   1.124  0.00  0.00    +0.000 C 
ATOM     30  C   UNL     1       1.742  -7.757   1.667  0.00  0.00    +0.000 C 
ATOM     31  C   UNL     1       3.196  -8.009   2.169  0.00  0.00    +0.000 C 
ATOM     32  C   UNL     1       3.640  -6.631   2.667  0.00  0.00    +0.000 C 
ATOM     33  N   UNL     1       2.592  -5.664   2.164  0.00  0.00    +0.000 NA
ATOM     34  H   UNL     1       1.980  -5.384   2.931  0.00  0.00    +0.000 HD
ENDBRANCH  28  29
ENDBRANCH  27  28
ENDBRANCH   8  27
TORSDOF 8
