
 OpenBabel03132512093D

 55 58  0  0  0  0  0  0  0  0999 V2000
    0.9411   -0.0467   -0.0660 C   0  0  0  0  0  0  0  0  0  0  0  0
    0.4344   -1.3107    0.6094 C   0  0  0  0  0  0  0  0  0  0  0  0
    0.9244   -1.3562    1.9945 N   0  0  0  0  0  0  0  0  0  0  0  0
    1.2139   -0.3126    2.7446 C   0  0  0  0  0  0  0  0  0  0  0  0
    1.0891    1.1355    2.2997 C   0  0  0  0  0  0  0  0  0  0  0  0
    2.3068    2.4391    2.3029 N   0  0  0  0  0  0  0  0  0  0  0  0
    1.2943    3.7437    1.7751 O   0  0  0  0  0  0  0  0  0  0  0  0
    0.0803    3.1506    1.6171 N   0  0  0  0  0  0  0  0  0  0  0  0
   -0.0482    1.8090    1.8751 C   0  0  0  0  0  0  0  0  0  0  0  0
   -1.3336    1.1154    1.7092 N   0  0  0  0  0  0  0  0  0  0  0  0
    1.6292   -0.7020    3.9411 N   0  0  0  0  0  0  0  0  0  0  0  0
    1.6129   -2.0333    3.9853 C   0  0  0  0  0  0  0  0  0  0  0  0
    1.9346   -3.0027    4.9583 C   0  0  0  0  0  0  0  0  0  0  0  0
    2.4320   -2.5771    6.3301 C   0  0  0  0  0  0  0  0  0  0  0  0
    2.8587   -2.2120    7.5069 C   0  0  0  0  0  0  0  0  0  0  0  0
    3.3561   -1.7864    8.8787 C   0  0  0  0  0  0  0  0  0  0  0  0
    3.9978   -0.4120    8.7810 C   0  0  0  0  0  0  0  0  0  0  0  0
    2.1861   -1.7317    9.8474 C   0  0  0  0  0  0  0  0  0  0  0  0
    4.3145   -2.7240    9.3465 O   0  0  0  0  0  0  0  0  0  0  0  0
    1.7963   -4.3126    4.6594 N   0  0  0  0  0  0  0  0  0  0  0  0
    1.3605   -4.7218    3.4389 C   0  0  0  0  0  0  0  0  0  0  0  0
    1.0327   -3.8387    2.4695 C   0  0  0  0  0  0  0  0  0  0  0  0
    0.5698   -4.3025    1.2097 O   0  0  0  0  0  0  0  0  0  0  0  0
    0.4504   -5.6964    0.9665 C   0  0  0  0  0  0  0  0  0  0  0  0
    1.8105   -6.3565    1.1236 C   0  0  0  0  0  0  0  0  0  0  0  0
    1.7423   -7.7569    1.6667 C   0  0  0  0  0  0  0  0  0  0  0  0
    3.1959   -8.0087    2.1692 C   0  0  0  0  0  0  0  0  0  0  0  0
    3.6404   -6.6307    2.6665 C   0  0  0  0  0  0  0  0  0  0  0  0
    2.5924   -5.6636    2.1642 N   0  0  0  0  0  0  0  0  0  0  0  0
    1.1512   -2.4687    2.7115 C   0  0  0  0  0  0  0  0  0  0  0  0
    0.5844    0.8099    0.4669 H   0  0  0  0  0  0  0  0  0  0  0  0
    0.5845   -0.0135   -1.0742 H   0  0  0  0  0  0  0  0  0  0  0  0
    2.0111   -0.0467   -0.0660 H   0  0  0  0  0  0  0  0  0  0  0  0
   -0.6356   -1.3107    0.6094 H   0  0  0  0  0  0  0  0  0  0  0  0
    0.7911   -2.1672    0.0765 H   0  0  0  0  0  0  0  0  0  0  0  0
   -2.1553    1.6322    1.3959 H   0  0  0  0  0  0  0  0  0  0  0  0
   -1.4039    0.1173    1.9074 H   0  0  0  0  0  0  0  0  0  0  0  0
    3.2757    0.2945    8.4285 H   0  0  0  0  0  0  0  0  0  0  0  0
    4.3480   -0.1124    9.7467 H   0  0  0  0  0  0  0  0  0  0  0  0
    4.8215   -0.4505    8.0991 H   0  0  0  0  0  0  0  0  0  0  0  0
    1.7344   -2.6992    9.9161 H   0  0  0  0  0  0  0  0  0  0  0  0
    2.5363   -1.4321   10.8131 H   0  0  0  0  0  0  0  0  0  0  0  0
    1.4640   -1.0252    9.4949 H   0  0  0  0  0  0  0  0  0  0  0  0
    4.6418   -2.4440   10.2490 H   0  0  0  0  0  0  0  0  0  0  0  0
    1.2745   -5.7697    3.2404 H   0  0  0  0  0  0  0  0  0  0  0  0
   -0.2363   -6.1232    1.6673 H   0  0  0  0  0  0  0  0  0  0  0  0
    0.0896   -5.8553   -0.0283 H   0  0  0  0  0  0  0  0  0  0  0  0
    2.2293   -6.3287    0.1393 H   0  0  0  0  0  0  0  0  0  0  0  0
    1.0045   -7.8770    2.4323 H   0  0  0  0  0  0  0  0  0  0  0  0
    1.4740   -8.4540    0.9005 H   0  0  0  0  0  0  0  0  0  0  0  0
    3.2528   -8.7647    2.9243 H   0  0  0  0  0  0  0  0  0  0  0  0
    3.8234   -8.3493    1.3722 H   0  0  0  0  0  0  0  0  0  0  0  0
    3.7286   -6.6025    3.7325 H   0  0  0  0  0  0  0  0  0  0  0  0
    4.6014   -6.3812    2.2677 H   0  0  0  0  0  0  0  0  0  0  0  0
    1.9805   -5.3842    2.9310 H   0  0  0  0  0  0  0  0  0  0  0  0
  1  2  1  0  0  0  0
  1 31  1  0  0  0  0
  1 32  1  0  0  0  0
  1 33  1  0  0  0  0
  2  3  1  0  0  0  0
  2 34  1  0  0  0  0
  2 35  1  0  0  0  0
  3  4  1  0  0  0  0
  3 30  1  0  0  0  0
  4  5  1  0  0  0  0
  4 11  2  0  0  0  0
  5  6  2  0  0  0  0
  5  9  1  0  0  0  0
  6  7  1  0  0  0  0
  7  8  1  0  0  0  0
  8  9  2  0  0  0  0
  9 10  1  0  0  0  0
 10 36  1  0  0  0  0
 10 37  1  0  0  0  0
 11 12  1  0  0  0  0
 12 13  1  0  0  0  0
 12 30  2  0  0  0  0
 13 14  1  0  0  0  0
 13 20  2  0  0  0  0
 14 15  3  0  0  0  0
 15 16  1  0  0  0  0
 16 17  1  0  0  0  0
 16 18  1  0  0  0  0
 16 19  1  0  0  0  0
 17 38  1  0  0  0  0
 17 39  1  0  0  0  0
 17 40  1  0  0  0  0
 18 41  1  0  0  0  0
 18 42  1  0  0  0  0
 18 43  1  0  0  0  0
 19 44  1  0  0  0  0
 20 21  1  0  0  0  0
 21 22  2  0  0  0  0
 21 45  1  0  0  0  0
 22 23  1  0  0  0  0
 22 30  1  0  0  0  0
 23 24  1  0  0  0  0
 24 25  1  0  0  0  0
 24 46  1  0  0  0  0
 24 47  1  0  0  0  0
 25 26  1  0  0  0  0
 25 29  1  0  0  0  0
 25 48  1  0  0  0  0
 26 27  1  0  0  0  0
 26 49  1  0  0  0  0
 26 50  1  0  0  0  0
 27 28  1  0  0  0  0
 27 51  1  0  0  0  0
 27 52  1  0  0  0  0
 28 29  1  0  0  0  0
 28 53  1  0  0  0  0
 28 54  1  0  0  0  0
 29 55  1  0  0  0  0
M  END
