
 OpenBabel03132512093D

 51 53  0  0  0  0  0  0  0  0999 V2000
    0.9832   -0.0477    0.0863 C   0  0  0  0  0  0  0  0  0  0  0  0
    0.4765    0.4222    1.4401 C   0  0  0  0  0  0  0  0  0  0  0  0
    0.9665    1.7833    1.7012 N   0  0  0  0  0  0  0  0  0  0  0  0
    0.3127    2.8833    1.3520 C   0  0  0  0  0  0  0  0  0  0  0  0
   -1.0099    2.9055    0.6033 C   0  0  0  0  0  0  0  0  0  0  0  0
   -1.3945    3.6342   -0.9789 N   0  0  0  0  0  0  0  0  0  0  0  0
   -3.0737    3.2108   -1.0604 O   0  0  0  0  0  0  0  0  0  0  0  0
   -3.2816    2.5387    0.1039 N   0  0  0  0  0  0  0  0  0  0  0  0
   -2.2338    2.3640    0.9726 C   0  0  0  0  0  0  0  0  0  0  0  0
   -2.3999    1.6355    2.2386 N   0  0  0  0  0  0  0  0  0  0  0  0
    0.9724    3.9548    1.7461 N   0  0  0  0  0  0  0  0  0  0  0  0
    2.0922    3.5541    2.3659 C   0  0  0  0  0  0  0  0  0  0  0  0
    3.1670    4.2119    2.9836 C   0  0  0  0  0  0  0  0  0  0  0  0
    3.2173    5.7298    3.0461 C   0  0  0  0  0  0  0  0  0  0  0  0
    3.2605    7.0318    3.0997 C   0  0  0  0  0  0  0  0  0  0  0  0
    3.3108    8.5497    3.1622 C   0  0  0  0  0  0  0  0  0  0  0  0
    3.2349    9.1176    1.7543 C   0  0  0  0  0  0  0  0  0  0  0  0
    2.1361    9.0624    3.9793 C   0  0  0  0  0  0  0  0  0  0  0  0
    4.5261    8.9583    3.7725 O   0  0  0  0  0  0  0  0  0  0  0  0
    4.1919    3.4378    3.5410 N   0  0  0  0  0  0  0  0  0  0  0  0
    4.1361    2.0772    3.4790 C   0  0  0  0  0  0  0  0  0  0  0  0
    5.1881    1.3154    4.0530 O   0  0  0  0  0  0  0  0  0  0  0  0
    6.2792    1.9721    4.6812 C   0  0  0  0  0  0  0  0  0  0  0  0
    6.9815    2.8660    3.6721 C   0  0  0  0  0  0  0  0  0  0  0  0
    6.0344    3.8679    3.1624 N   0  0  0  0  0  0  0  0  0  0  0  0
    6.7136    4.7324    2.1865 C   0  0  0  0  0  0  0  0  0  0  0  0
    3.1138    1.4389    2.8900 C   0  0  0  0  0  0  0  0  0  0  0  0
    2.0844    2.1321    2.3294 C   0  0  0  0  0  0  0  0  0  0  0  0
    0.6265    0.6123   -0.6767 H   0  0  0  0  0  0  0  0  0  0  0  0
    0.6265   -1.0385   -0.1038 H   0  0  0  0  0  0  0  0  0  0  0  0
    2.0532   -0.0477    0.0863 H   0  0  0  0  0  0  0  0  0  0  0  0
   -0.5935    0.4222    1.4401 H   0  0  0  0  0  0  0  0  0  0  0  0
    0.8332   -0.2378    2.2031 H   0  0  0  0  0  0  0  0  0  0  0  0
   -3.3094    1.2467    2.4877 H   0  0  0  0  0  0  0  0  0  0  0  0
   -1.6057    1.5188    2.8678 H   0  0  0  0  0  0  0  0  0  0  0  0
    2.3191    8.8097    1.2945 H   0  0  0  0  0  0  0  0  0  0  0  0
    3.2703   10.1861    1.7983 H   0  0  0  0  0  0  0  0  0  0  0  0
    4.0618    8.7567    1.1791 H   0  0  0  0  0  0  0  0  0  0  0  0
    2.1896    8.6627    4.9704 H   0  0  0  0  0  0  0  0  0  0  0  0
    2.1716   10.1309    4.0233 H   0  0  0  0  0  0  0  0  0  0  0  0
    1.2204    8.7545    3.5195 H   0  0  0  0  0  0  0  0  0  0  0  0
    4.5592    9.9569    3.8136 H   0  0  0  0  0  0  0  0  0  0  0  0
    5.9177    2.5670    5.4937 H   0  0  0  0  0  0  0  0  0  0  0  0
    6.9687    1.2428    5.0522 H   0  0  0  0  0  0  0  0  0  0  0  0
    7.8038    3.3608    4.1454 H   0  0  0  0  0  0  0  0  0  0  0  0
    7.3431    2.2711    2.8595 H   0  0  0  0  0  0  0  0  0  0  0  0
    5.2506    3.3963    2.7112 H   0  0  0  0  0  0  0  0  0  0  0  0
    7.0751    4.1375    1.3739 H   0  0  0  0  0  0  0  0  0  0  0  0
    6.0241    5.4617    1.8154 H   0  0  0  0  0  0  0  0  0  0  0  0
    7.5358    5.2272    2.6598 H   0  0  0  0  0  0  0  0  0  0  0  0
    3.1072    0.3693    2.8602 H   0  0  0  0  0  0  0  0  0  0  0  0
  1  2  1  0  0  0  0
  1 29  1  0  0  0  0
  1 30  1  0  0  0  0
  1 31  1  0  0  0  0
  2  3  1  0  0  0  0
  2 32  1  0  0  0  0
  2 33  1  0  0  0  0
  3  4  1  0  0  0  0
  3 28  1  0  0  0  0
  4  5  1  0  0  0  0
  4 11  2  0  0  0  0
  5  6  2  0  0  0  0
  5  9  1  0  0  0  0
  6  7  1  0  0  0  0
  7  8  1  0  0  0  0
  8  9  2  0  0  0  0
  9 10  1  0  0  0  0
 10 34  1  0  0  0  0
 10 35  1  0  0  0  0
 11 12  1  0  0  0  0
 12 13  1  0  0  0  0
 12 28  2  0  0  0  0
 13 14  1  0  0  0  0
 13 20  2  0  0  0  0
 14 15  3  0  0  0  0
 15 16  1  0  0  0  0
 16 17  1  0  0  0  0
 16 18  1  0  0  0  0
 16 19  1  0  0  0  0
 17 36  1  0  0  0  0
 17 37  1  0  0  0  0
 17 38  1  0  0  0  0
 18 39  1  0  0  0  0
 18 40  1  0  0  0  0
 18 41  1  0  0  0  0
 19 42  1  0  0  0  0
 20 21  1  0  0  0  0
 21 22  1  0  0  0  0
 21 27  2  0  0  0  0
 22 23  1  0  0  0  0
 23 24  1  0  0  0  0
 23 43  1  0  0  0  0
 23 44  1  0  0  0  0
 24 25  1  0  0  0  0
 24 45  1  0  0  0  0
 24 46  1  0  0  0  0
 25 26  1  0  0  0  0
 25 47  1  0  0  0  0
 26 48  1  0  0  0  0
 26 49  1  0  0  0  0
 26 50  1  0  0  0  0
 27 28  1  0  0  0  0
 27 51  1  0  0  0  0
M  END
