REMARK  Name = 
REMARK  13 active torsions:
REMARK  status: ('A' for Active; 'I' for Inactive)
REMARK    1  A    between atoms: C_1  and  C_2
REMARK    2  A    between atoms: C_2  and  N_3
REMARK    3  A    between atoms: C_4  and  C_5
REMARK    4  A    between atoms: C_13  and  C_14
REMARK    5  A    between atoms: C_15  and  C_16
REMARK    6  A    between atoms: C_16  and  C_17
REMARK    7  A    between atoms: C_16  and  C_18
REMARK    8  A    between atoms: C_16  and  O_19
REMARK    9  A    between atoms: C_21  and  O_22
REMARK   10  A    between atoms: O_22  and  C_23
REMARK   11  A    between atoms: C_23  and  C_24
REMARK   12  A    between atoms: C_24  and  N_25
REMARK   13  A    between atoms: N_25  and  C_26
REMARK                            x       y       z     vdW  Elec       q    Type
REMARK                         _______ _______ _______ _____ _____    ______ ____
ROOT
ATOM      1  N   UNL     1       0.967   1.783   1.701  0.00  0.00    +0.000 N 
ATOM      2  C   UNL     1       0.313   2.883   1.352  0.00  0.00    +0.000 A 
ATOM      3  N   UNL     1       0.972   3.955   1.746  0.00  0.00    +0.000 NA
ATOM      4  C   UNL     1       2.092   3.554   2.366  0.00  0.00    +0.000 A 
ATOM      5  C   UNL     1       3.167   4.212   2.984  0.00  0.00    +0.000 A 
ATOM      6  N   UNL     1       4.192   3.438   3.541  0.00  0.00    +0.000 NA
ATOM      7  C   UNL     1       4.136   2.077   3.479  0.00  0.00    +0.000 A 
ATOM      8  C   UNL     1       3.114   1.439   2.890  0.00  0.00    +0.000 A 
ATOM      9  C   UNL     1       2.084   2.132   2.329  0.00  0.00    +0.000 A 
ENDROOT
BRANCH   2  10
ATOM     10  C   UNL     1      -1.010   2.905   0.603  0.00  0.00    +0.000 A 
ATOM     11  N   UNL     1      -1.395   3.634  -0.979  0.00  0.00    +0.000 NA
ATOM     12  O   UNL     1      -3.074   3.211  -1.060  0.00  0.00    +0.000 OA
ATOM     13  N   UNL     1      -3.282   2.539   0.104  0.00  0.00    +0.000 NA
ATOM     14  C   UNL     1      -2.234   2.364   0.973  0.00  0.00    +0.000 A 
ATOM     15  N   UNL     1      -2.400   1.635   2.239  0.00  0.00    +0.000 N 
ATOM     16  H   UNL     1      -3.309   1.247   2.488  0.00  0.00    +0.000 HD
ATOM     17  H   UNL     1      -1.606   1.519   2.868  0.00  0.00    +0.000 HD
ENDBRANCH   2  10
BRANCH   1  19
ATOM     18  C   UNL     1       0.983  -0.048   0.086  0.00  0.00    +0.000 C 
ATOM     19  C   UNL     1       0.476   0.422   1.440  0.00  0.00    +0.000 C 
ENDBRANCH   1  19
BRANCH   5  20
ATOM     20  C   UNL     1       3.217   5.730   3.046  0.00  0.00    +0.000 C 
ATOM     21  C   UNL     1       3.260   7.032   3.100  0.00  0.00    +0.000 C 
BRANCH  21  22
ATOM     22  C   UNL     1       3.311   8.550   3.162  0.00  0.00    +0.000 C 
ATOM     23  C   UNL     1       3.235   9.118   1.754  0.00  0.00    +0.000 C 
ATOM     24  C   UNL     1       2.136   9.062   3.979  0.00  0.00    +0.000 C 
BRANCH  22  25
ATOM     25  O   UNL     1       4.526   8.958   3.772  0.00  0.00    +0.000 OA
ATOM     26  H   UNL     1       4.559   9.957   3.814  0.00  0.00    +0.000 HD
ENDBRANCH  22  25
ENDBRANCH  21  22
ENDBRANCH   5  20
BRANCH   7  27
ATOM     27  O   UNL     1       5.188   1.315   4.053  0.00  0.00    +0.000 OA
BRANCH  27  28
ATOM     28  C   UNL     1       6.279   1.972   4.681  0.00  0.00    +0.000 C 
BRANCH  28  29
ATOM     29  C   UNL     1       6.981   2.866   3.672  0.00  0.00    +0.000 C 
BRANCH  29  30
ATOM     30  N   UNL     1       6.034   3.868   3.162  0.00  0.00    +0.000 NA
ATOM     31  C   UNL     1       6.714   4.732   2.187  0.00  0.00    +0.000 C 
ATOM     32  H   UNL     1       5.251   3.396   2.711  0.00  0.00    +0.000 HD
ENDBRANCH  29  30
ENDBRANCH  28  29
ENDBRANCH  27  28
ENDBRANCH   7  27
TORSDOF 9
