REMARK  Name = 
REMARK  13 active torsions:
REMARK  status: ('A' for Active; 'I' for Inactive)
REMARK    1  A    between atoms: C_1  and  C_2
REMARK    2  A    between atoms: C_2  and  N_3
REMARK    3  A    between atoms: C_4  and  C_5
REMARK    4  A    between atoms: C_13  and  C_14
REMARK    5  A    between atoms: C_15  and  C_16
REMARK    6  A    between atoms: C_16  and  C_17
REMARK    7  A    between atoms: C_16  and  C_18
REMARK    8  A    between atoms: C_16  and  O_19
REMARK    9  A    between atoms: C_21  and  O_22
REMARK   10  A    between atoms: O_22  and  C_23
REMARK   11  A    between atoms: C_23  and  C_24
REMARK   12  A    between atoms: C_24  and  N_25
REMARK   13  A    between atoms: N_25  and  C_26
REMARK                            x       y       z     vdW  Elec       q    Type
REMARK                         _______ _______ _______ _____ _____    ______ ____
ROOT
ATOM      1  N   UNL     1       1.070   1.813   1.569  0.00  0.00    +0.000 N 
ATOM      2  C   UNL     1       0.400   2.910   1.242  0.00  0.00    +0.000 A 
ATOM      3  N   UNL     1       1.074   3.985   1.601  0.00  0.00    +0.000 NA
ATOM      4  C   UNL     1       2.220   3.590   2.175  0.00  0.00    +0.000 A 
ATOM      5  C   UNL     1       3.319   4.253   2.743  0.00  0.00    +0.000 A 
ATOM      6  N   UNL     1       4.368   3.484   3.261  0.00  0.00    +0.000 NA
ATOM      7  C   UNL     1       4.312   2.123   3.209  0.00  0.00    +0.000 A 
ATOM      8  C   UNL     1       3.267   1.480   2.668  0.00  0.00    +0.000 A 
ATOM      9  C   UNL     1       2.213   2.168   2.147  0.00  0.00    +0.000 A 
ENDROOT
BRANCH   2  10
ATOM     10  C   UNL     1      -0.953   2.926   0.550  0.00  0.00    +0.000 A 
ATOM     11  N   UNL     1      -1.406   3.644  -1.018  0.00  0.00    +0.000 NA
ATOM     12  O   UNL     1      -3.086   3.218  -1.026  0.00  0.00    +0.000 OA
ATOM     13  N   UNL     1      -3.243   2.552   0.150  0.00  0.00    +0.000 NA
ATOM     14  C   UNL     1      -2.159   2.385   0.974  0.00  0.00    +0.000 A 
ATOM     15  N   UNL     1      -2.270   1.663   2.251  0.00  0.00    +0.000 N 
ATOM     16  H   UNL     1      -3.167   1.274   2.540  0.00  0.00    +0.000 HD
ATOM     17  H   UNL     1      -1.449   1.552   2.846  0.00  0.00    +0.000 HD
ENDBRANCH   2  10
BRANCH   1  19
ATOM     18  C   UNL     1       1.087  -0.048  -0.010  0.00  0.00    +0.000 C 
ATOM     19  C   UNL     1       0.580   0.448   1.335  0.00  0.00    +0.000 C 
ENDBRANCH   1  19
BRANCH   5  20
ATOM     20  C   UNL     1       3.369   5.772   2.794  0.00  0.00    +0.000 C 
ATOM     21  C   UNL     1       3.412   7.074   2.838  0.00  0.00    +0.000 C 
BRANCH  21  22
ATOM     22  C   UNL     1       3.462   8.592   2.890  0.00  0.00    +0.000 C 
ATOM     23  C   UNL     1       2.391   9.166   1.976  0.00  0.00    +0.000 C 
ATOM     24  C   UNL     1       3.215   9.059   4.315  0.00  0.00    +0.000 C 
BRANCH  22  25
ATOM     25  O   UNL     1       4.739   9.039   2.460  0.00  0.00    +0.000 OA
ATOM     26  H   UNL     1       4.772  10.037   2.494  0.00  0.00    +0.000 HD
ENDBRANCH  22  25
ENDBRANCH  21  22
ENDBRANCH   5  20
BRANCH   7  27
ATOM     27  O   UNL     1       5.389   1.367   3.742  0.00  0.00    +0.000 OA
BRANCH  27  28
ATOM     28  C   UNL     1       6.505   2.029   4.319  0.00  0.00    +0.000 C 
BRANCH  28  29
ATOM     29  C   UNL     1       7.162   2.918   3.276  0.00  0.00    +0.000 C 
BRANCH  29  30
ATOM     30  N   UNL     1       6.192   3.915   2.801  0.00  0.00    +0.000 NA
ATOM     31  C   UNL     1       6.827   4.775   1.792  0.00  0.00    +0.000 C 
ATOM     32  H   UNL     1       5.390   3.439   2.387  0.00  0.00    +0.000 HD
ENDBRANCH  29  30
ENDBRANCH  28  29
ENDBRANCH  27  28
ENDBRANCH   7  27
TORSDOF 9
