
 OpenBabel03132512093D

 67 71  0  0  0  0  0  0  0  0999 V2000
    1.0428    0.0859   -0.0280 C   0  0  0  0  0  0  0  0  0  0  0  0
    0.5361    1.1936   -0.9372 C   0  0  0  0  0  0  0  0  0  0  0  0
    1.0428    0.9600   -2.3511 C   0  0  0  0  0  0  0  0  0  0  0  0
    0.5528   -0.3371   -2.8392 N   0  0  0  0  0  0  0  0  0  0  0  0
    1.0533   -1.3867   -1.9330 C   0  0  0  0  0  0  0  0  0  0  0  0
    0.5768   -2.7568   -2.4417 C   0  0  0  0  0  0  0  0  0  0  0  0
    0.8329   -2.9085   -3.9191 C   0  0  0  0  0  0  0  0  0  0  0  0
    0.9838   -1.8720   -4.7143 C   0  0  0  0  0  0  0  0  0  0  0  0
    1.2448   -2.1397   -6.1876 C   0  0  0  0  0  0  0  0  0  0  0  0
    0.3192   -2.8472   -6.9552 C   0  0  0  0  0  0  0  0  0  0  0  0
    0.5821   -3.1265   -8.2817 C   0  0  0  0  0  0  0  0  0  0  0  0
    1.7858   -2.7176   -8.8294 C   0  0  0  0  0  0  0  0  0  0  0  0
    2.0734   -3.0341  -10.2358 N   0  0  0  0  0  0  0  0  0  0  0  0
    1.0895   -3.7745  -11.0386 C   0  0  0  0  0  0  0  0  0  0  0  0
   -0.0849   -3.1418  -11.1354 N   0  0  0  0  0  0  0  0  0  0  0  0
   -1.0882   -3.7746  -11.7901 C   0  0  0  0  0  0  0  0  0  0  0  0
   -2.3666   -3.0899  -12.0305 N   0  0  0  0  0  0  0  0  0  0  0  0
   -3.4498   -3.7840  -12.7417 C   0  0  0  0  0  0  0  0  0  0  0  0
   -3.9297   -3.1986  -13.8788 C   0  0  0  0  0  0  0  0  0  0  0  0
   -5.0012   -3.7848  -14.5532 C   0  0  0  0  0  0  0  0  0  0  0  0
   -5.5580   -4.9601  -14.0891 C   0  0  0  0  0  0  0  0  0  0  0  0
   -5.0549   -5.5323  -12.9335 C   0  0  0  0  0  0  0  0  0  0  0  0
   -3.9940   -4.9704  -12.2370 C   0  0  0  0  0  0  0  0  0  0  0  0
   -3.4901   -5.5988  -10.9701 C   0  0  0  0  0  0  0  0  0  0  0  0
   -2.3941   -4.9669  -10.2215 N   0  0  0  0  0  0  0  0  0  0  0  0
   -4.0112   -6.6771  -10.5448 O   0  0  0  0  0  0  0  0  0  0  0  0
   -0.8917   -5.1039  -12.2407 C   0  0  0  0  0  0  0  0  0  0  0  0
   -1.6491   -6.1835  -12.8651 C   0  0  0  0  0  0  0  0  0  0  0  0
   -0.7648   -7.1903  -13.0594 C   0  0  0  0  0  0  0  0  0  0  0  0
    0.5017   -6.8578  -12.6038 N   0  0  0  0  0  0  0  0  0  0  0  0
    0.4163   -5.5886  -12.0802 C   0  0  0  0  0  0  0  0  0  0  0  0
    1.4558   -4.9552  -11.4958 N   0  0  0  0  0  0  0  0  0  0  0  0
    2.7292   -2.0175   -8.0903 C   0  0  0  0  0  0  0  0  0  0  0  0
    4.0382   -1.6137   -8.7044 C   0  0  0  0  0  0  0  0  0  0  0  0
    2.4246   -1.7453   -6.7519 C   0  0  0  0  0  0  0  0  0  0  0  0
    0.9159   -0.4546   -4.2671 C   0  0  0  0  0  0  0  0  0  0  0  0
    0.6861   -0.8583   -0.3832 H   0  0  0  0  0  0  0  0  0  0  0  0
    0.6862    0.2504    0.9673 H   0  0  0  0  0  0  0  0  0  0  0  0
    2.1128    0.0859   -0.0280 H   0  0  0  0  0  0  0  0  0  0  0  0
   -0.5339    1.1936   -0.9372 H   0  0  0  0  0  0  0  0  0  0  0  0
    0.8928    2.1378   -0.5820 H   0  0  0  0  0  0  0  0  0  0  0  0
    0.6861    1.7398   -2.9912 H   0  0  0  0  0  0  0  0  0  0  0  0
    2.1128    0.9600   -2.3511 H   0  0  0  0  0  0  0  0  0  0  0  0
    2.1227   -1.3625   -1.9079 H   0  0  0  0  0  0  0  0  0  0  0  0
    0.6748   -1.2190   -0.9463 H   0  0  0  0  0  0  0  0  0  0  0  0
    1.1208   -3.5187   -1.9235 H   0  0  0  0  0  0  0  0  0  0  0  0
   -0.4730   -2.8517   -2.2578 H   0  0  0  0  0  0  0  0  0  0  0  0
    0.8939   -3.8924   -4.3350 H   0  0  0  0  0  0  0  0  0  0  0  0
   -0.5989   -3.1749   -6.5140 H   0  0  0  0  0  0  0  0  0  0  0  0
   -0.1345   -3.6517   -8.8779 H   0  0  0  0  0  0  0  0  0  0  0  0
    2.9557   -2.7400  -10.6546 H   0  0  0  0  0  0  0  0  0  0  0  0
   -2.5021   -2.1332  -11.7038 H   0  0  0  0  0  0  0  0  0  0  0  0
   -3.4872   -2.2977  -14.2495 H   0  0  0  0  0  0  0  0  0  0  0  0
   -5.3935   -3.3213  -15.4342 H   0  0  0  0  0  0  0  0  0  0  0  0
   -6.3670   -5.4221  -14.6154 H   0  0  0  0  0  0  0  0  0  0  0  0
   -5.4971   -6.4347  -12.5662 H   0  0  0  0  0  0  0  0  0  0  0  0
   -2.0518   -5.3938   -9.3608 H   0  0  0  0  0  0  0  0  0  0  0  0
   -1.9760   -4.1014  -10.5629 H   0  0  0  0  0  0  0  0  0  0  0  0
   -2.6889   -6.1803  -13.1173 H   0  0  0  0  0  0  0  0  0  0  0  0
   -1.0133   -8.1285  -13.5098 H   0  0  0  0  0  0  0  0  0  0  0  0
    1.3366   -7.4422  -12.6484 H   0  0  0  0  0  0  0  0  0  0  0  0
    4.1471   -0.5508   -8.6454 H   0  0  0  0  0  0  0  0  0  0  0  0
    4.8406   -2.0843   -8.1756 H   0  0  0  0  0  0  0  0  0  0  0  0
    4.0600   -1.9180   -9.7300 H   0  0  0  0  0  0  0  0  0  0  0  0
    3.1352   -1.2136   -6.1542 H   0  0  0  0  0  0  0  0  0  0  0  0
    0.1570    0.0351   -4.8407 H   0  0  0  0  0  0  0  0  0  0  0  0
    1.8724    0.0006   -4.4181 H   0  0  0  0  0  0  0  0  0  0  0  0
  1  2  1  0  0  0  0
  1 37  1  0  0  0  0
  1 38  1  0  0  0  0
  1 39  1  0  0  0  0
  2  3  1  0  0  0  0
  2 40  1  0  0  0  0
  2 41  1  0  0  0  0
  3  4  1  0  0  0  0
  3 42  1  0  0  0  0
  3 43  1  0  0  0  0
  4  5  1  0  0  0  0
  4 36  1  0  0  0  0
  5  6  1  0  0  0  0
  5 44  1  0  0  0  0
  5 45  1  0  0  0  0
  6  7  1  0  0  0  0
  6 46  1  0  0  0  0
  6 47  1  0  0  0  0
  7  8  2  0  0  0  0
  7 48  1  0  0  0  0
  8  9  1  0  0  0  0
  8 36  1  0  0  0  0
  9 10  1  0  0  0  0
  9 35  2  0  0  0  0
 10 11  2  0  0  0  0
 10 49  1  0  0  0  0
 11 12  1  0  0  0  0
 11 50  1  0  0  0  0
 12 13  1  0  0  0  0
 12 33  2  0  0  0  0
 13 14  1  0  0  0  0
 13 51  1  0  0  0  0
 14 15  1  0  0  0  0
 14 32  2  0  0  0  0
 15 16  2  0  0  0  0
 16 17  1  0  0  0  0
 16 27  1  0  0  0  0
 17 18  1  0  0  0  0
 17 52  1  0  0  0  0
 18 19  1  0  0  0  0
 18 23  2  0  0  0  0
 19 20  2  0  0  0  0
 19 53  1  0  0  0  0
 20 21  1  0  0  0  0
 20 54  1  0  0  0  0
 21 22  2  0  0  0  0
 21 55  1  0  0  0  0
 22 23  1  0  0  0  0
 22 56  1  0  0  0  0
 23 24  1  0  0  0  0
 24 25  1  0  0  0  0
 24 26  2  0  0  0  0
 25 57  1  0  0  0  0
 25 58  1  0  0  0  0
 27 28  1  0  0  0  0
 27 31  2  0  0  0  0
 28 29  2  0  0  0  0
 28 59  1  0  0  0  0
 29 30  1  0  0  0  0
 29 60  1  0  0  0  0
 30 31  1  0  0  0  0
 30 61  1  0  0  0  0
 31 32  1  0  0  0  0
 33 34  1  0  0  0  0
 33 35  1  0  0  0  0
 34 62  1  0  0  0  0
 34 63  1  0  0  0  0
 34 64  1  0  0  0  0
 35 65  1  0  0  0  0
 36 66  1  0  0  0  0
 36 67  1  0  0  0  0
M  END
