REMARK  Name = 
REMARK  8 active torsions:
REMARK  status: ('A' for Active; 'I' for Inactive)
REMARK    1  A    between atoms: C_1  and  C_2
REMARK    2  A    between atoms: C_2  and  C_3
REMARK    3  A    between atoms: C_3  and  N_4
REMARK    4  A    between atoms: C_8  and  C_9
REMARK    5  A    between atoms: C_12  and  N_13
REMARK    6  A    between atoms: N_17  and  C_18
REMARK    7  A    between atoms: C_23  and  C_24
REMARK    8  A    between atoms: C_33  and  C_34
REMARK                            x       y       z     vdW  Elec       q    Type
REMARK                         _______ _______ _______ _____ _____    ______ ____
ROOT
ATOM      1  N   UNL     1       2.733   7.954   6.545  0.00  0.00    +0.000 N 
ATOM      2  C   UNL     1       1.763   8.919   7.083  0.00  0.00    +0.000 A 
ATOM      3  N   UNL     1       0.704   8.428   7.736  0.00  0.00    +0.000 NA
ATOM      4  C   UNL     1      -0.177   9.313   8.260  0.00  0.00    +0.000 A 
ATOM      5  N   UNL     1      -1.300   8.844   9.085  0.00  0.00    +0.000 N 
ATOM      6  C   UNL     1      -0.006  10.697   8.005  0.00  0.00    +0.000 A 
ATOM      7  C   UNL     1      -0.696  11.959   8.243  0.00  0.00    +0.000 A 
ATOM      8  C   UNL     1       0.114  12.923   7.744  0.00  0.00    +0.000 A 
ATOM      9  N   UNL     1       1.268  12.390   7.192  0.00  0.00    +0.000 N 
ATOM     10  C   UNL     1       1.182  11.024   7.331  0.00  0.00    +0.000 A 
ATOM     11  N   UNL     1       2.115  10.169   6.859  0.00  0.00    +0.000 NA
ATOM     12  H   UNL     1       3.704   7.979   6.855  0.00  0.00    +0.000 HD
ATOM     13  H   UNL     1      -1.419   7.847   9.265  0.00  0.00    +0.000 HD
ATOM     14  H   UNL     1       2.035  12.910   6.766  0.00  0.00    +0.000 HD
ENDROOT
BRANCH   1  18
ATOM     15  C   UNL     1       1.490   5.087   3.697  0.00  0.00    +0.000 A 
ATOM     16  C   UNL     1       0.578   6.010   4.209  0.00  0.00    +0.000 A 
ATOM     17  C   UNL     1       0.980   6.937   5.151  0.00  0.00    +0.000 A 
ATOM     18  C   UNL     1       2.302   6.953   5.558  0.00  0.00    +0.000 A 
ATOM     19  C   UNL     1       3.235   6.052   5.063  0.00  0.00    +0.000 A 
ATOM     20  C   UNL     1       4.669   6.114   5.502  0.00  0.00    +0.000 C 
ATOM     21  C   UNL     1       2.790   5.122   4.117  0.00  0.00    +0.000 A 
BRANCH  15  26
ATOM     22  N   UNL     1       0.416   1.616   2.377  0.00  0.00    +0.000 NA
ATOM     23  C   UNL     1       0.348   1.953   0.944  0.00  0.00    +0.000 C 
ATOM     24  C   UNL     1      -0.320   3.328   0.783  0.00  0.00    +0.000 C 
ATOM     25  C   UNL     1       0.281   4.339   1.726  0.00  0.00    +0.000 C 
ATOM     26  C   UNL     1       0.917   3.985   2.821  0.00  0.00    +0.000 C 
ATOM     27  C   UNL     1       1.112   2.576   3.260  0.00  0.00    +0.000 C 
BRANCH  22  28
ATOM     28  C   UNL     1       0.906   0.236   2.506  0.00  0.00    +0.000 C 
BRANCH  28  30
ATOM     29  C   UNL     1       0.906   0.007   0.034  0.00  0.00    +0.000 C 
ATOM     30  C   UNL     1       0.400  -0.592   1.336  0.00  0.00    +0.000 C 
ENDBRANCH  28  30
ENDBRANCH  22  28
ENDBRANCH  15  26
ENDBRANCH   1  18
BRANCH   5  31
ATOM     31  C   UNL     1      -2.252   9.811   9.650  0.00  0.00    +0.000 A 
ATOM     32  C   UNL     1      -2.405   9.960  10.999  0.00  0.00    +0.000 A 
ATOM     33  C   UNL     1      -3.296  10.916  11.487  0.00  0.00    +0.000 A 
ATOM     34  C   UNL     1      -4.000  11.723  10.615  0.00  0.00    +0.000 A 
ATOM     35  C   UNL     1      -3.829  11.550   9.252  0.00  0.00    +0.000 A 
ATOM     36  C   UNL     1      -2.955  10.604   8.736  0.00  0.00    +0.000 A 
BRANCH  36  37
ATOM     37  C   UNL     1      -2.813  10.421   7.252  0.00  0.00    +0.000 C 
ATOM     38  N   UNL     1      -1.916   9.384   6.722  0.00  0.00    +0.000 N 
ATOM     39  O   UNL     1      -3.470  11.161   6.455  0.00  0.00    +0.000 OA
ATOM     40  H   UNL     1      -1.819   9.260   5.715  0.00  0.00    +0.000 HD
ATOM     41  H   UNL     1      -1.389   8.790   7.362  0.00  0.00    +0.000 HD
ENDBRANCH  36  37
ENDBRANCH   5  31
TORSDOF 6
