REMARK  Name = 
REMARK  8 active torsions:
REMARK  status: ('A' for Active; 'I' for Inactive)
REMARK    1  A    between atoms: C_1  and  C_2
REMARK    2  A    between atoms: C_2  and  C_3
REMARK    3  A    between atoms: C_3  and  N_4
REMARK    4  A    between atoms: C_8  and  C_9
REMARK    5  A    between atoms: C_12  and  N_13
REMARK    6  A    between atoms: N_17  and  C_18
REMARK    7  A    between atoms: C_23  and  C_24
REMARK    8  A    between atoms: C_33  and  C_34
REMARK                            x       y       z     vdW  Elec       q    Type
REMARK                         _______ _______ _______ _____ _____    ______ ____
ROOT
ATOM      1  N   UNL     1       2.073  -3.034 -10.236  0.00  0.00    +0.000 N 
ATOM      2  C   UNL     1       1.089  -3.775 -11.039  0.00  0.00    +0.000 A 
ATOM      3  N   UNL     1      -0.085  -3.142 -11.135  0.00  0.00    +0.000 NA
ATOM      4  C   UNL     1      -1.088  -3.775 -11.790  0.00  0.00    +0.000 A 
ATOM      5  N   UNL     1      -2.367  -3.090 -12.030  0.00  0.00    +0.000 N 
ATOM      6  C   UNL     1      -0.892  -5.104 -12.241  0.00  0.00    +0.000 A 
ATOM      7  C   UNL     1      -1.649  -6.184 -12.865  0.00  0.00    +0.000 A 
ATOM      8  C   UNL     1      -0.765  -7.190 -13.059  0.00  0.00    +0.000 A 
ATOM      9  N   UNL     1       0.502  -6.858 -12.604  0.00  0.00    +0.000 N 
ATOM     10  C   UNL     1       0.416  -5.589 -12.080  0.00  0.00    +0.000 A 
ATOM     11  N   UNL     1       1.456  -4.955 -11.496  0.00  0.00    +0.000 NA
ATOM     12  H   UNL     1       2.956  -2.740 -10.655  0.00  0.00    +0.000 HD
ATOM     13  H   UNL     1      -2.502  -2.133 -11.704  0.00  0.00    +0.000 HD
ATOM     14  H   UNL     1       1.337  -7.442 -12.648  0.00  0.00    +0.000 HD
ENDROOT
BRANCH   1  18
ATOM     15  C   UNL     1       1.245  -2.140  -6.188  0.00  0.00    +0.000 A 
ATOM     16  C   UNL     1       0.319  -2.847  -6.955  0.00  0.00    +0.000 A 
ATOM     17  C   UNL     1       0.582  -3.127  -8.282  0.00  0.00    +0.000 A 
ATOM     18  C   UNL     1       1.786  -2.718  -8.829  0.00  0.00    +0.000 A 
ATOM     19  C   UNL     1       2.729  -2.018  -8.090  0.00  0.00    +0.000 A 
ATOM     20  C   UNL     1       4.038  -1.614  -8.704  0.00  0.00    +0.000 C 
ATOM     21  C   UNL     1       2.425  -1.745  -6.752  0.00  0.00    +0.000 A 
BRANCH  15  26
ATOM     22  N   UNL     1       0.553  -0.337  -2.839  0.00  0.00    +0.000 NA
ATOM     23  C   UNL     1       1.053  -1.387  -1.933  0.00  0.00    +0.000 C 
ATOM     24  C   UNL     1       0.577  -2.757  -2.442  0.00  0.00    +0.000 C 
ATOM     25  C   UNL     1       0.833  -2.909  -3.919  0.00  0.00    +0.000 C 
ATOM     26  C   UNL     1       0.984  -1.872  -4.714  0.00  0.00    +0.000 C 
ATOM     27  C   UNL     1       0.916  -0.455  -4.267  0.00  0.00    +0.000 C 
BRANCH  22  28
ATOM     28  C   UNL     1       1.043   0.960  -2.351  0.00  0.00    +0.000 C 
BRANCH  28  30
ATOM     29  C   UNL     1       1.043   0.086  -0.028  0.00  0.00    +0.000 C 
ATOM     30  C   UNL     1       0.536   1.194  -0.937  0.00  0.00    +0.000 C 
ENDBRANCH  28  30
ENDBRANCH  22  28
ENDBRANCH  15  26
ENDBRANCH   1  18
BRANCH   5  31
ATOM     31  C   UNL     1      -3.450  -3.784 -12.742  0.00  0.00    +0.000 A 
ATOM     32  C   UNL     1      -3.930  -3.199 -13.879  0.00  0.00    +0.000 A 
ATOM     33  C   UNL     1      -5.001  -3.785 -14.553  0.00  0.00    +0.000 A 
ATOM     34  C   UNL     1      -5.558  -4.960 -14.089  0.00  0.00    +0.000 A 
ATOM     35  C   UNL     1      -5.055  -5.532 -12.934  0.00  0.00    +0.000 A 
ATOM     36  C   UNL     1      -3.994  -4.970 -12.237  0.00  0.00    +0.000 A 
BRANCH  36  37
ATOM     37  C   UNL     1      -3.490  -5.599 -10.970  0.00  0.00    +0.000 C 
ATOM     38  N   UNL     1      -2.394  -4.967 -10.222  0.00  0.00    +0.000 N 
ATOM     39  O   UNL     1      -4.011  -6.677 -10.545  0.00  0.00    +0.000 OA
ATOM     40  H   UNL     1      -2.052  -5.394  -9.361  0.00  0.00    +0.000 HD
ATOM     41  H   UNL     1      -1.976  -4.101 -10.563  0.00  0.00    +0.000 HD
ENDBRANCH  36  37
ENDBRANCH   5  31
TORSDOF 6
