REMARK  Name = 
REMARK  6 active torsions:
REMARK  status: ('A' for Active; 'I' for Inactive)
REMARK    1  A    between atoms: C_1  and  C_2
REMARK    2  A    between atoms: C_8  and  N_9
REMARK    3  A    between atoms: N_10  and  C_11
REMARK    4  A    between atoms: C_14  and  S_15
REMARK    5  A    between atoms: S_15  and  N_16
REMARK    6  A    between atoms: C_21  and  O_22
REMARK                            x       y       z     vdW  Elec       q    Type
REMARK                         _______ _______ _______ _____ _____    ______ ____
ROOT
ATOM      1  C   UNL     1       1.077   0.000   0.063  0.00  0.00    +0.000 C 
ATOM      2  C   UNL     1       0.571   1.197   0.852  0.00  0.00    +0.000 A 
ATOM      3  C   UNL     1      -0.176   1.088   2.003  0.00  0.00    +0.000 A 
ATOM      4  C   UNL     1      -0.486   2.221   2.756  0.00  0.00    +0.000 A 
ATOM      5 CL   UNL     1      -1.466   2.063   4.234  0.00  0.00    +0.000 Cl
ATOM      6  C   UNL     1      -0.035   3.465   2.361  0.00  0.00    +0.000 A 
ATOM      7  C   UNL     1       0.728   3.586   1.196  0.00  0.00    +0.000 A 
ATOM      8  C   UNL     1       1.349   4.714   0.504  0.00  0.00    +0.000 A 
ATOM      9  C   UNL     1       1.952   4.253  -0.552  0.00  0.00    +0.000 A 
ATOM     10  N   UNL     1       1.786   2.867  -0.636  0.00  0.00    +0.000 N 
ATOM     11  C   UNL     1       1.032   2.441   0.438  0.00  0.00    +0.000 A 
ATOM     12  H   UNL     1       2.163   2.269  -1.371  0.00  0.00    +0.000 HD
ENDROOT
BRANCH   8  13
ATOM     13  N   UNL     1       1.300   6.121   0.927  0.00  0.00    +0.000 NA
ATOM     14  N   UNL     1       0.674   6.445   1.985  0.00  0.00    +0.000 NA
BRANCH  14  15
ATOM     15  C   UNL     1       0.625   7.852   2.408  0.00  0.00    +0.000 A 
ATOM     16  C   UNL     1       0.882   8.198   3.720  0.00  0.00    +0.000 A 
ATOM     17  C   UNL     1       0.877   9.466   4.099  0.00  0.00    +0.000 A 
ATOM     18  C   UNL     1       0.633  10.444   3.242  0.00  0.00    +0.000 A 
ATOM     19  C   UNL     1       0.368  10.171   1.914  0.00  0.00    +0.000 A 
ATOM     20  C   UNL     1       0.359   8.852   1.484  0.00  0.00    +0.000 A 
BRANCH  18  21
ATOM     21  S   UNL     1       0.648  12.160   3.817  0.00  0.00    +0.000 S 
ATOM     22  O   UNL     1       2.028  12.496   4.387  0.00  0.00    +0.000 OA
ATOM     23  O   UNL     1       0.340  13.094   2.644  0.00  0.00    +0.000 OA
BRANCH  21  24
ATOM     24  N   UNL     1      -0.571  12.370   5.069  0.00  0.00    +0.000 NA
ATOM     25  H   UNL     1      -0.563  13.337   5.393  0.00  0.00    +0.000 HD
ATOM     26  H   UNL     1      -1.491  12.147   4.689  0.00  0.00    +0.000 HD
ENDBRANCH  21  24
ENDBRANCH  18  21
ENDBRANCH  14  15
ENDBRANCH   8  13
BRANCH   9  27
ATOM     27  O   UNL     1       2.673   5.043  -1.486  0.00  0.00    +0.000 OA
ATOM     28  H   UNL     1       2.745   6.032  -1.354  0.00  0.00    +0.000 HD
ENDBRANCH   9  27
TORSDOF 5
