REMARK  Name = 
REMARK  6 active torsions:
REMARK  status: ('A' for Active; 'I' for Inactive)
REMARK    1  A    between atoms: C_1  and  C_2
REMARK    2  A    between atoms: C_7  and  O_8
REMARK    3  A    between atoms: C_9  and  N_10
REMARK    4  A    between atoms: N_11  and  C_12
REMARK    5  A    between atoms: C_15  and  S_16
REMARK    6  A    between atoms: S_16  and  N_17
REMARK                            x       y       z     vdW  Elec       q    Type
REMARK                         _______ _______ _______ _____ _____    ______ ____
ROOT
ATOM      1  N   UNL     1       2.488  -5.334  -0.943  0.00  0.00    +0.000 NA
ATOM      2  N   UNL     1       3.143  -4.394  -1.492  0.00  0.00    +0.000 NA
ENDROOT
BRANCH   1  10
ATOM      3  C   UNL     1       1.012   0.070  -0.071  0.00  0.00    +0.000 C 
ATOM      4  C   UNL     1       0.505  -1.308   0.324  0.00  0.00    +0.000 A 
ATOM      5  C   UNL     1      -0.589  -1.495   1.168  0.00  0.00    +0.000 A 
ATOM      6  C   UNL     1      -0.983  -2.763   1.532  0.00  0.00    +0.000 A 
ATOM      7  C   UNL     1      -0.282  -3.869   1.066  0.00  0.00    +0.000 A 
ATOM      8  N   UNL     1      -0.420  -5.230   1.248  0.00  0.00    +0.000 N 
ATOM      9  C   UNL     1       0.582  -5.888   0.529  0.00  0.00    +0.000 A 
ATOM     10  C   UNL     1       1.333  -5.023  -0.088  0.00  0.00    +0.000 A 
ATOM     11  C   UNL     1       0.825  -3.687   0.219  0.00  0.00    +0.000 A 
ATOM     12  C   UNL     1       1.214  -2.395  -0.148  0.00  0.00    +0.000 A 
ATOM     13  H   UNL     1      -1.136  -5.682   1.816  0.00  0.00    +0.000 HD
BRANCH   9  14
ATOM     14  O   UNL     1       0.755  -7.296   0.479  0.00  0.00    +0.000 OA
ATOM     15  H   UNL     1       1.500  -7.689  -0.061  0.00  0.00    +0.000 HD
ENDBRANCH   9  14
ENDBRANCH   1  10
BRANCH   2  16
ATOM     16  C   UNL     1       4.298  -4.705  -2.347  0.00  0.00    +0.000 A 
ATOM     17  C   UNL     1       4.229  -5.742  -3.319  0.00  0.00    +0.000 A 
ATOM     18  C   UNL     1       5.415  -6.230  -3.892  0.00  0.00    +0.000 A 
ATOM     19  C   UNL     1       6.526  -5.569  -3.750  0.00  0.00    +0.000 A 
ATOM     20  C   UNL     1       6.540  -4.364  -3.034  0.00  0.00    +0.000 A 
ATOM     21  C   UNL     1       5.439  -4.027  -2.210  0.00  0.00    +0.000 A 
BRANCH  19  22
ATOM     22  S   UNL     1       8.056  -6.206  -4.477  0.00  0.00    +0.000 S 
ATOM     23  O   UNL     1       7.888  -6.326  -5.994  0.00  0.00    +0.000 OA
ATOM     24  O   UNL     1       9.207  -5.246  -4.166  0.00  0.00    +0.000 OA
BRANCH  22  25
ATOM     25  N   UNL     1       8.413  -7.790  -3.799  0.00  0.00    +0.000 NA
ATOM     26  H   UNL     1       9.275  -8.149  -4.209  0.00  0.00    +0.000 HD
ATOM     27  H   UNL     1       8.525  -7.710  -2.788  0.00  0.00    +0.000 HD
ENDBRANCH  22  25
ENDBRANCH  19  22
ENDBRANCH   2  16
TORSDOF 5
