
 OpenBabel03132512093D

 37 39  0  0  0  0  0  0  0  0999 V2000
    1.0656    0.0672   -0.0345 C   0  0  0  0  0  0  0  0  0  0  0  0
    0.5589    0.5216   -1.3936 C   0  0  0  0  0  0  0  0  0  0  0  0
    0.1042   -0.3888   -2.3209 C   0  0  0  0  0  0  0  0  0  0  0  0
   -0.2510    0.0250   -3.6050 C   0  0  0  0  0  0  0  0  0  0  0  0
   -0.8220   -1.1697   -4.7945 Cl  0  0  0  0  0  0  0  0  0  0  0  0
   -0.1617    1.3570   -3.9574 C   0  0  0  0  0  0  0  0  0  0  0  0
    0.2940    2.2905   -3.0216 C   0  0  0  0  0  0  0  0  0  0  0  0
    0.5076    3.7364   -3.0557 C   0  0  0  0  0  0  0  0  0  0  0  0
    0.2642    4.6201   -4.2049 N   0  0  0  0  0  0  0  0  0  0  0  0
   -0.1726    4.1373   -5.2964 N   0  0  0  0  0  0  0  0  0  0  0  0
   -0.4160    5.0209   -6.4457 C   0  0  0  0  0  0  0  0  0  0  0  0
   -1.4918    4.8283   -7.2892 C   0  0  0  0  0  0  0  0  0  0  0  0
   -1.6177    5.5398   -8.3984 C   0  0  0  0  0  0  0  0  0  0  0  0
   -0.7293    6.4592   -8.7365 C   0  0  0  0  0  0  0  0  0  0  0  0
   -0.9589    7.4068  -10.2614 S   0  0  0  0  0  0  0  0  0  0  0  0
   -0.9874    6.3082  -11.6362 N   0  0  0  0  0  0  0  0  0  0  0  0
   -2.2826    8.1719  -10.1922 O   0  0  0  0  0  0  0  0  0  0  0  0
    0.1954    8.3984  -10.4246 O   0  0  0  0  0  0  0  0  0  0  0  0
    0.3721    6.7049   -7.9394 C   0  0  0  0  0  0  0  0  0  0  0  0
    0.5385    5.9731   -6.7727 C   0  0  0  0  0  0  0  0  0  0  0  0
    0.9512    4.1026   -1.8888 C   0  0  0  0  0  0  0  0  0  0  0  0
    1.2788    5.4358   -1.5258 O   0  0  0  0  0  0  0  0  0  0  0  0
    1.0588    2.9939   -1.0439 N   0  0  0  0  0  0  0  0  0  0  0  0
    0.6563    1.8668   -1.7308 C   0  0  0  0  0  0  0  0  0  0  0  0
    0.7089   -0.9213    0.1668 H   0  0  0  0  0  0  0  0  0  0  0  0
    0.7089    0.7358    0.7209 H   0  0  0  0  0  0  0  0  0  0  0  0
    2.1356    0.0672   -0.0345 H   0  0  0  0  0  0  0  0  0  0  0  0
    0.0227   -1.4220   -2.0547 H   0  0  0  0  0  0  0  0  0  0  0  0
   -0.4397    1.6731   -4.9411 H   0  0  0  0  0  0  0  0  0  0  0  0
   -2.2322    4.0959   -7.0436 H   0  0  0  0  0  0  0  0  0  0  0  0
   -2.4587    5.3668   -9.0369 H   0  0  0  0  0  0  0  0  0  0  0  0
   -1.1168    6.8423  -12.4955 H   0  0  0  0  0  0  0  0  0  0  0  0
   -0.1052    5.7984  -11.6823 H   0  0  0  0  0  0  0  0  0  0  0  0
    1.0875    7.4500   -8.2185 H   0  0  0  0  0  0  0  0  0  0  0  0
    1.3845    6.1395   -6.1389 H   0  0  0  0  0  0  0  0  0  0  0  0
    1.1734    6.1753   -2.1906 H   0  0  0  0  0  0  0  0  0  0  0  0
    1.3823    3.0148   -0.0768 H   0  0  0  0  0  0  0  0  0  0  0  0
  1  2  1  0  0  0  0
  1 25  1  0  0  0  0
  1 26  1  0  0  0  0
  1 27  1  0  0  0  0
  2  3  1  0  0  0  0
  2 24  2  0  0  0  0
  3  4  2  0  0  0  0
  3 28  1  0  0  0  0
  4  5  1  0  0  0  0
  4  6  1  0  0  0  0
  6  7  2  0  0  0  0
  6 29  1  0  0  0  0
  7  8  1  0  0  0  0
  7 24  1  0  0  0  0
  8  9  1  0  0  0  0
  8 21  2  0  0  0  0
  9 10  2  0  0  0  0
 10 11  1  0  0  0  0
 11 12  1  0  0  0  0
 11 20  2  0  0  0  0
 12 13  2  0  0  0  0
 12 30  1  0  0  0  0
 13 14  1  0  0  0  0
 13 31  1  0  0  0  0
 14 15  1  0  0  0  0
 14 19  2  0  0  0  0
 15 16  1  0  0  0  0
 15 17  2  0  0  0  0
 15 18  2  0  0  0  0
 16 32  1  0  0  0  0
 16 33  1  0  0  0  0
 19 20  1  0  0  0  0
 19 34  1  0  0  0  0
 20 35  1  0  0  0  0
 21 22  1  0  0  0  0
 21 23  1  0  0  0  0
 22 36  1  0  0  0  0
 23 24  1  0  0  0  0
 23 37  1  0  0  0  0
M  END
