REMARK  Name = 
REMARK  6 active torsions:
REMARK  status: ('A' for Active; 'I' for Inactive)
REMARK    1  A    between atoms: C_1  and  C_2
REMARK    2  A    between atoms: C_8  and  N_9
REMARK    3  A    between atoms: N_10  and  C_11
REMARK    4  A    between atoms: C_14  and  S_15
REMARK    5  A    between atoms: S_15  and  N_16
REMARK    6  A    between atoms: C_21  and  O_22
REMARK                            x       y       z     vdW  Elec       q    Type
REMARK                         _______ _______ _______ _____ _____    ______ ____
ROOT
ATOM      1  C   UNL     1       1.066   0.067  -0.035  0.00  0.00    +0.000 C 
ATOM      2  C   UNL     1       0.559   0.522  -1.394  0.00  0.00    +0.000 A 
ATOM      3  C   UNL     1       0.104  -0.389  -2.321  0.00  0.00    +0.000 A 
ATOM      4  C   UNL     1      -0.251   0.025  -3.605  0.00  0.00    +0.000 A 
ATOM      5 CL   UNL     1      -0.822  -1.170  -4.795  0.00  0.00    +0.000 Cl
ATOM      6  C   UNL     1      -0.162   1.357  -3.957  0.00  0.00    +0.000 A 
ATOM      7  C   UNL     1       0.294   2.291  -3.022  0.00  0.00    +0.000 A 
ATOM      8  C   UNL     1       0.508   3.736  -3.056  0.00  0.00    +0.000 A 
ATOM      9  C   UNL     1       0.951   4.103  -1.889  0.00  0.00    +0.000 A 
ATOM     10  N   UNL     1       1.059   2.994  -1.044  0.00  0.00    +0.000 N 
ATOM     11  C   UNL     1       0.656   1.867  -1.731  0.00  0.00    +0.000 A 
ATOM     12  H   UNL     1       1.382   3.015  -0.077  0.00  0.00    +0.000 HD
ENDROOT
BRANCH   8  13
ATOM     13  N   UNL     1       0.264   4.620  -4.205  0.00  0.00    +0.000 NA
ATOM     14  N   UNL     1      -0.173   4.137  -5.296  0.00  0.00    +0.000 NA
BRANCH  14  15
ATOM     15  C   UNL     1      -0.416   5.021  -6.446  0.00  0.00    +0.000 A 
ATOM     16  C   UNL     1      -1.492   4.828  -7.289  0.00  0.00    +0.000 A 
ATOM     17  C   UNL     1      -1.618   5.540  -8.398  0.00  0.00    +0.000 A 
ATOM     18  C   UNL     1      -0.729   6.459  -8.736  0.00  0.00    +0.000 A 
ATOM     19  C   UNL     1       0.372   6.705  -7.939  0.00  0.00    +0.000 A 
ATOM     20  C   UNL     1       0.538   5.973  -6.773  0.00  0.00    +0.000 A 
BRANCH  18  21
ATOM     21  S   UNL     1      -0.959   7.407 -10.261  0.00  0.00    +0.000 S 
ATOM     22  O   UNL     1      -2.283   8.172 -10.192  0.00  0.00    +0.000 OA
ATOM     23  O   UNL     1       0.195   8.398 -10.425  0.00  0.00    +0.000 OA
BRANCH  21  24
ATOM     24  N   UNL     1      -0.987   6.308 -11.636  0.00  0.00    +0.000 NA
ATOM     25  H   UNL     1      -1.117   6.842 -12.495  0.00  0.00    +0.000 HD
ATOM     26  H   UNL     1      -0.105   5.798 -11.682  0.00  0.00    +0.000 HD
ENDBRANCH  21  24
ENDBRANCH  18  21
ENDBRANCH  14  15
ENDBRANCH   8  13
BRANCH   9  27
ATOM     27  O   UNL     1       1.279   5.436  -1.526  0.00  0.00    +0.000 OA
ATOM     28  H   UNL     1       1.173   6.175  -2.191  0.00  0.00    +0.000 HD
ENDBRANCH   9  27
TORSDOF 5
