REMARK  Name = 
REMARK  6 active torsions:
REMARK  status: ('A' for Active; 'I' for Inactive)
REMARK    1  A    between atoms: C_1  and  C_2
REMARK    2  A    between atoms: C_7  and  O_8
REMARK    3  A    between atoms: C_9  and  N_10
REMARK    4  A    between atoms: N_11  and  C_12
REMARK    5  A    between atoms: C_15  and  S_16
REMARK    6  A    between atoms: S_16  and  N_17
REMARK                            x       y       z     vdW  Elec       q    Type
REMARK                         _______ _______ _______ _____ _____    ______ ____
ROOT
ATOM      1  N   UNL     1      -1.344  -0.813  -5.166  0.00  0.00    +0.000 NA
ATOM      2  N   UNL     1      -1.233  -1.800  -4.373  0.00  0.00    +0.000 NA
ENDROOT
BRANCH   1  10
ATOM      3  C   UNL     1       0.921   0.027   0.055  0.00  0.00    +0.000 C 
ATOM      4  C   UNL     1       0.414   0.792  -1.157  0.00  0.00    +0.000 A 
ATOM      5  C   UNL     1       0.645   2.168  -1.188  0.00  0.00    +0.000 A 
ATOM      6  C   UNL     1       0.368   2.898  -2.322  0.00  0.00    +0.000 A 
ATOM      7  C   UNL     1      -0.156   2.266  -3.444  0.00  0.00    +0.000 A 
ATOM      8  N   UNL     1      -0.535   2.707  -4.696  0.00  0.00    +0.000 N 
ATOM      9  C   UNL     1      -1.004   1.619  -5.438  0.00  0.00    +0.000 A 
ATOM     10  C   UNL     1      -0.941   0.531  -4.728  0.00  0.00    +0.000 A 
ATOM     11  C   UNL     1      -0.397   0.881  -3.416  0.00  0.00    +0.000 A 
ATOM     12  C   UNL     1      -0.108   0.148  -2.261  0.00  0.00    +0.000 A 
ATOM     13  H   UNL     1      -0.481   3.671  -5.026  0.00  0.00    +0.000 HD
BRANCH   9  14
ATOM     14  O   UNL     1      -1.480   1.691  -6.774  0.00  0.00    +0.000 OA
ATOM     15  H   UNL     1      -1.798   0.863  -7.236  0.00  0.00    +0.000 HD
ENDBRANCH   9  14
ENDBRANCH   1  10
BRANCH   2  16
ATOM     16  C   UNL     1      -1.637  -3.144  -4.811  0.00  0.00    +0.000 A 
ATOM     17  C   UNL     1      -1.243  -3.604  -6.099  0.00  0.00    +0.000 A 
ATOM     18  C   UNL     1      -1.923  -4.685  -6.682  0.00  0.00    +0.000 A 
ATOM     19  C   UNL     1      -2.707  -5.428  -5.957  0.00  0.00    +0.000 A 
ATOM     20  C   UNL     1      -2.866  -5.158  -4.592  0.00  0.00    +0.000 A 
ATOM     21  C   UNL     1      -2.436  -3.913  -4.070  0.00  0.00    +0.000 A 
BRANCH  19  22
ATOM     22  S   UNL     1      -3.593  -6.814  -6.713  0.00  0.00    +0.000 S 
ATOM     23  O   UNL     1      -2.585  -7.803  -7.302  0.00  0.00    +0.000 OA
ATOM     24  O   UNL     1      -4.439  -7.519  -5.651  0.00  0.00    +0.000 OA
BRANCH  22  25
ATOM     25  N   UNL     1      -4.641  -6.212  -7.993  0.00  0.00    +0.000 NA
ATOM     26  H   UNL     1      -5.140  -6.992  -8.419  0.00  0.00    +0.000 HD
ATOM     27  H   UNL     1      -5.313  -5.552  -7.600  0.00  0.00    +0.000 HD
ENDBRANCH  22  25
ENDBRANCH  19  22
ENDBRANCH   2  16
TORSDOF 5
