REMARK  Name = 
REMARK  5 active torsions:
REMARK  status: ('A' for Active; 'I' for Inactive)
REMARK    1  A    between atoms: N_1  and  S_2
REMARK    2  A    between atoms: S_2  and  C_5
REMARK    3  A    between atoms: C_8  and  N_9
REMARK    4  A    between atoms: N_10  and  C_11
REMARK    5  A    between atoms: C_12  and  O_13
REMARK                            x       y       z     vdW  Elec       q    Type
REMARK                         _______ _______ _______ _____ _____    ______ ____
ROOT
ATOM      1  N   UNL     1       2.121   0.059   6.867  0.00  0.00    +0.000 NA
ATOM      2  N   UNL     1       2.467   1.010   7.635  0.00  0.00    +0.000 NA
ENDROOT
BRANCH   2   3
ATOM      3  C   UNL     1       2.905   0.723   9.008  0.00  0.00    +0.000 A 
ATOM      4  C   UNL     1       3.297   1.801   9.879  0.00  0.00    +0.000 A 
ATOM      5  N   UNL     1       3.713   1.530  11.181  0.00  0.00    +0.000 N 
ATOM      6  C   UNL     1       3.751   0.142  11.665  0.00  0.00    +0.000 A 
ATOM      7  C   UNL     1       3.256  -0.174  12.919  0.00  0.00    +0.000 A 
ATOM      8  C   UNL     1       3.624  -1.463  13.373  0.00  0.00    +0.000 A 
ATOM      9  C   UNL     1       4.072  -2.432  12.594  0.00  0.00    +0.000 A 
ATOM     10 CL   UNL     1       4.136  -4.123  13.144  0.00  0.00    +0.000 Cl
ATOM     11  C   UNL     1       4.482  -2.065  11.342  0.00  0.00    +0.000 A 
ATOM     12  C   UNL     1       4.275  -0.789  10.876  0.00  0.00    +0.000 A 
ATOM     13  H   UNL     1       3.990   2.293  11.797  0.00  0.00    +0.000 HD
BRANCH   4  14
ATOM     14  O   UNL     1       3.260   3.141   9.411  0.00  0.00    +0.000 OA
ATOM     15  H   UNL     1       2.962   3.336   8.477  0.00  0.00    +0.000 HD
ENDBRANCH   4  14
ENDBRANCH   2   3
BRANCH   1  19
ATOM     16  C   UNL     1       1.087   0.859   2.853  0.00  0.00    +0.000 A 
ATOM     17  C   UNL     1       1.181  -0.461   3.265  0.00  0.00    +0.000 A 
ATOM     18  C   UNL     1       1.315  -0.616   4.665  0.00  0.00    +0.000 A 
ATOM     19  C   UNL     1       1.682   0.345   5.493  0.00  0.00    +0.000 A 
ATOM     20  C   UNL     1       1.633   1.621   5.005  0.00  0.00    +0.000 A 
ATOM     21  C   UNL     1       1.378   1.860   3.675  0.00  0.00    +0.000 A 
BRANCH  16  22
ATOM     22  S   UNL     1       0.484   1.220   1.185  0.00  0.00    +0.000 S 
ATOM     23  O   UNL     1       0.994   2.594   0.744  0.00  0.00    +0.000 OA
ATOM     24  O   UNL     1      -1.046   1.220   1.185  0.00  0.00    +0.000 OA
BRANCH  22  25
ATOM     25  N   UNL     1       1.071  -0.009   0.070  0.00  0.00    +0.000 NA
ATOM     26  H   UNL     1       0.731   0.194  -0.870  0.00  0.00    +0.000 HD
ATOM     27  H   UNL     1       2.091  -0.009   0.070  0.00  0.00    +0.000 HD
ENDBRANCH  22  25
ENDBRANCH  16  22
ENDBRANCH   1  19
TORSDOF 5
