REMARK  Name = 
REMARK  5 active torsions:
REMARK  status: ('A' for Active; 'I' for Inactive)
REMARK    1  A    between atoms: N_1  and  S_2
REMARK    2  A    between atoms: S_2  and  C_5
REMARK    3  A    between atoms: C_8  and  N_9
REMARK    4  A    between atoms: N_10  and  C_11
REMARK    5  A    between atoms: C_12  and  O_13
REMARK                            x       y       z     vdW  Elec       q    Type
REMARK                         _______ _______ _______ _____ _____    ______ ____
ROOT
ATOM      1  N   UNL     1       2.042  -5.771  -3.534  0.00  0.00    +0.000 NA
ATOM      2  N   UNL     1       2.775  -5.462  -4.525  0.00  0.00    +0.000 NA
ENDROOT
BRANCH   2   3
ATOM      3  C   UNL     1       3.076  -6.466  -5.556  0.00  0.00    +0.000 A 
ATOM      4  C   UNL     1       3.906  -6.117  -6.680  0.00  0.00    +0.000 A 
ATOM      5  N   UNL     1       4.192  -7.067  -7.657  0.00  0.00    +0.000 N 
ATOM      6  C   UNL     1       3.645  -8.427  -7.541  0.00  0.00    +0.000 A 
ATOM      7  C   UNL     1       4.477  -9.508  -7.779  0.00  0.00    +0.000 A 
ATOM      8  C   UNL     1       3.792 -10.738  -7.924  0.00  0.00    +0.000 A 
ATOM      9  C   UNL     1       2.551 -10.955  -7.527  0.00  0.00    +0.000 A 
ATOM     10 CL   UNL     1       1.891 -12.601  -7.372  0.00  0.00    +0.000 Cl
ATOM     11  C   UNL     1       1.801  -9.848  -7.242  0.00  0.00    +0.000 A 
ATOM     12  C   UNL     1       2.371  -8.598  -7.210  0.00  0.00    +0.000 A 
ATOM     13  H   UNL     1       4.780  -6.820  -8.453  0.00  0.00    +0.000 HD
BRANCH   4  14
ATOM     14  O   UNL     1       4.434  -4.803  -6.791  0.00  0.00    +0.000 OA
ATOM     15  H   UNL     1       4.230  -4.121  -6.090  0.00  0.00    +0.000 HD
ENDBRANCH   4  14
ENDBRANCH   2   3
BRANCH   1  19
ATOM     16  C   UNL     1       0.984  -2.828  -0.697  0.00  0.00    +0.000 A 
ATOM     17  C   UNL     1       0.402  -4.082  -0.603  0.00  0.00    +0.000 A 
ATOM     18  C   UNL     1       0.983  -5.049  -1.458  0.00  0.00    +0.000 A 
ATOM     19  C   UNL     1       1.740  -4.767  -2.502  0.00  0.00    +0.000 A 
ATOM     20  C   UNL     1       2.229  -3.492  -2.573  0.00  0.00    +0.000 A 
ATOM     21  C   UNL     1       1.809  -2.525  -1.693  0.00  0.00    +0.000 A 
BRANCH  16  22
ATOM     22  S   UNL     1       0.381  -1.627   0.515  0.00  0.00    +0.000 S 
ATOM     23  O   UNL     1       0.891  -2.006   1.907  0.00  0.00    +0.000 OA
ATOM     24  O   UNL     1      -1.149  -1.627   0.515  0.00  0.00    +0.000 OA
BRANCH  22  25
ATOM     25  N   UNL     1       0.968  -0.022   0.092  0.00  0.00    +0.000 NA
ATOM     26  H   UNL     1       0.628   0.655   0.775  0.00  0.00    +0.000 HD
ATOM     27  H   UNL     1       1.988  -0.022   0.092  0.00  0.00    +0.000 HD
ENDBRANCH  22  25
ENDBRANCH  16  22
ENDBRANCH   1  19
TORSDOF 5
