REMARK  Name = 
REMARK  7 active torsions:
REMARK  status: ('A' for Active; 'I' for Inactive)
REMARK    1  A    between atoms: C_1  and  O_2
REMARK    2  A    between atoms: O_2  and  C_3
REMARK    3  A    between atoms: N_10  and  C_11
REMARK    4  A    between atoms: N_18  and  C_19
REMARK    5  A    between atoms: C_19  and  C_20
REMARK    6  A    between atoms: C_29  and  O_30
REMARK    7  A    between atoms: O_30  and  C_31
REMARK                            x       y       z     vdW  Elec       q    Type
REMARK                         _______ _______ _______ _____ _____    ______ ____
ROOT
ATOM      1  C   UNL     1       0.951  -2.391   0.262  0.00  0.00    +0.000 A 
ATOM      2  C   UNL     1       0.058  -3.426   0.271  0.00  0.00    +0.000 A 
ATOM      3  C   UNL     1       0.471  -4.725  -0.101  0.00  0.00    +0.000 A 
ATOM      4  N   UNL     1      -0.439  -5.751  -0.118  0.00  0.00    +0.000 NA
ATOM      5  C   UNL     1       0.012  -6.923  -0.469  0.00  0.00    +0.000 A 
ATOM      6  N   UNL     1       1.300  -7.241  -0.806  0.00  0.00    +0.000 NA
ATOM      7  C   UNL     1       2.184  -6.273  -0.780  0.00  0.00    +0.000 A 
ATOM      8  N   UNL     1       3.584  -6.576  -1.110  0.00  0.00    +0.000 N 
ATOM      9  C   UNL     1       1.826  -4.938  -0.440  0.00  0.00    +0.000 A 
ATOM     10  C   UNL     1       2.734  -3.854  -0.428  0.00  0.00    +0.000 A 
ATOM     11  C   UNL     1       2.298  -2.605  -0.089  0.00  0.00    +0.000 A 
ATOM     12  H   UNL     1       4.283  -5.834  -1.094  0.00  0.00    +0.000 HD
ENDROOT
BRANCH   8  13
ATOM     13  C   UNL     1       3.976  -7.948  -1.463  0.00  0.00    +0.000 A 
ATOM     14  C   UNL     1       3.430  -8.625  -2.554  0.00  0.00    +0.000 A 
ATOM     15  C   UNL     1       3.796  -9.930  -2.817  0.00  0.00    +0.000 A 
ATOM     16  C   UNL     1       4.712 -10.574  -1.980  0.00  0.00    +0.000 A 
ATOM     17  C   UNL     1       5.253  -9.889  -0.878  0.00  0.00    +0.000 A 
ATOM     18  C   UNL     1       6.112 -10.767  -0.250  0.00  0.00    +0.000 A 
ATOM     19  N   UNL     1       6.108 -11.981  -0.945  0.00  0.00    +0.000 NA
ATOM     20  N   UNL     1       5.302 -11.912  -1.964  0.00  0.00    +0.000 N 
ATOM     21  C   UNL     1       4.875  -8.574  -0.629  0.00  0.00    +0.000 A 
BRANCH  20  22
ATOM     22  C   UNL     1       5.032 -12.988  -2.928  0.00  0.00    +0.000 C 
BRANCH  22  23
ATOM     23  C   UNL     1       6.327 -13.384  -3.620  0.00  0.00    +0.000 A 
ATOM     24  C   UNL     1       7.434 -13.877  -2.875  0.00  0.00    +0.000 A 
ATOM     25  C   UNL     1       8.700 -13.934  -3.480  0.00  0.00    +0.000 A 
ATOM     26  C   UNL     1       8.812 -13.804  -4.769  0.00  0.00    +0.000 A 
ATOM     27  C   UNL     1       7.670 -13.616  -5.558  0.00  0.00    +0.000 A 
ATOM     28  C   UNL     1       6.446 -13.257  -4.942  0.00  0.00    +0.000 A 
ENDBRANCH  22  23
ENDBRANCH  20  22
ENDBRANCH   8  13
BRANCH   1  30
ATOM     29  C   UNL     1       1.082   0.047  -0.034  0.00  0.00    +0.000 C 
ATOM     30  O   UNL     1       0.608  -1.081   0.688  0.00  0.00    +0.000 OA
ENDBRANCH   1  30
BRANCH  11  31
ATOM     31  O   UNL     1       3.208  -1.516  -0.092  0.00  0.00    +0.000 OA
ATOM     32  C   UNL     1       2.760  -0.215   0.260  0.00  0.00    +0.000 C 
ENDBRANCH  11  31
TORSDOF 5
