
 OpenBabel03132512093D

 34 36  0  0  0  0  0  0  0  0999 V2000
    1.0707   -0.0094    0.0701 N   0  0  0  0  0  0  0  0  0  0  0  0
    0.4840    1.2196    1.1850 S   0  0  0  0  0  0  0  0  0  0  0  0
    0.9942    2.5935    0.7442 O   0  0  0  0  0  0  0  0  0  0  0  0
   -1.0464    1.2196    1.1850 O   0  0  0  0  0  0  0  0  0  0  0  0
    1.0874    0.8586    2.8528 C   0  0  0  0  0  0  0  0  0  0  0  0
    1.1814   -0.4605    3.2649 C   0  0  0  0  0  0  0  0  0  0  0  0
    1.3155   -0.6156    4.6649 C   0  0  0  0  0  0  0  0  0  0  0  0
    1.6824    0.3453    5.4931 C   0  0  0  0  0  0  0  0  0  0  0  0
    2.1209    0.0585    6.8666 N   0  0  0  0  0  0  0  0  0  0  0  0
    2.4668    1.0099    7.6350 N   0  0  0  0  0  0  0  0  0  0  0  0
    2.9053    0.7231    9.0084 C   0  0  0  0  0  0  0  0  0  0  0  0
    3.2972    1.8012    9.8792 C   0  0  0  0  0  0  0  0  0  0  0  0
    3.2599    3.1413    9.4110 O   0  0  0  0  0  0  0  0  0  0  0  0
    3.7127    1.5295   11.1805 N   0  0  0  0  0  0  0  0  0  0  0  0
    3.7512    0.1422   11.6652 C   0  0  0  0  0  0  0  0  0  0  0  0
    3.2563   -0.1743   12.9195 C   0  0  0  0  0  0  0  0  0  0  0  0
    3.6244   -1.4632   13.3726 C   0  0  0  0  0  0  0  0  0  0  0  0
    4.0715   -2.4315   12.5937 C   0  0  0  0  0  0  0  0  0  0  0  0
    4.1362   -4.1231   13.1437 Cl  0  0  0  0  0  0  0  0  0  0  0  0
    4.4820   -2.0646   11.3422 C   0  0  0  0  0  0  0  0  0  0  0  0
    4.2752   -0.7886   10.8764 C   0  0  0  0  0  0  0  0  0  0  0  0
    1.6325    1.6213    5.0045 C   0  0  0  0  0  0  0  0  0  0  0  0
    1.3783    1.8596    3.6754 C   0  0  0  0  0  0  0  0  0  0  0  0
    0.7307    0.1940   -0.8698 H   0  0  0  0  0  0  0  0  0  0  0  0
    2.0907   -0.0094    0.0701 H   0  0  0  0  0  0  0  0  0  0  0  0
    1.1551   -1.2872    2.5861 H   0  0  0  0  0  0  0  0  0  0  0  0
    1.1049   -1.5784    5.0815 H   0  0  0  0  0  0  0  0  0  0  0  0
    2.9616    3.3364    8.4767 H   0  0  0  0  0  0  0  0  0  0  0  0
    3.9902    2.2931   11.7972 H   0  0  0  0  0  0  0  0  0  0  0  0
    2.6505    0.4951   13.4938 H   0  0  0  0  0  0  0  0  0  0  0  0
    3.5344   -1.6676   14.4190 H   0  0  0  0  0  0  0  0  0  0  0  0
    4.9713   -2.7815   10.7164 H   0  0  0  0  0  0  0  0  0  0  0  0
    1.7937    2.4462    5.6666 H   0  0  0  0  0  0  0  0  0  0  0  0
    1.4151    2.8608    3.2998 H   0  0  0  0  0  0  0  0  0  0  0  0
  1  2  1  0  0  0  0
  1 24  1  0  0  0  0
  1 25  1  0  0  0  0
  2  3  2  0  0  0  0
  2  4  2  0  0  0  0
  2  5  1  0  0  0  0
  5  6  1  0  0  0  0
  5 23  2  0  0  0  0
  6  7  2  0  0  0  0
  6 26  1  0  0  0  0
  7  8  1  0  0  0  0
  7 27  1  0  0  0  0
  8  9  1  0  0  0  0
  8 22  2  0  0  0  0
  9 10  2  0  0  0  0
 10 11  1  0  0  0  0
 11 12  2  0  0  0  0
 11 21  1  0  0  0  0
 12 13  1  0  0  0  0
 12 14  1  0  0  0  0
 13 28  1  0  0  0  0
 14 15  1  0  0  0  0
 14 29  1  0  0  0  0
 15 16  1  0  0  0  0
 15 21  2  0  0  0  0
 16 17  2  0  0  0  0
 16 30  1  0  0  0  0
 17 18  1  0  0  0  0
 17 31  1  0  0  0  0
 18 19  1  0  0  0  0
 18 20  2  0  0  0  0
 20 21  1  0  0  0  0
 20 32  1  0  0  0  0
 22 23  1  0  0  0  0
 22 33  1  0  0  0  0
 23 34  1  0  0  0  0
M  END
