
 OpenBabel03132514253D

 37 39  0  0  0  0  0  0  0  0999 V2000
    0.9932    0.0074    0.0995 C   0  0  0  0  0  0  0  0  0  0  0  0
    0.4866   -0.8815    1.2236 C   0  0  0  0  0  0  0  0  0  0  0  0
    0.7821   -2.2234    1.1375 C   0  0  0  0  0  0  0  0  0  0  0  0
    0.4927   -3.0821    2.1983 C   0  0  0  0  0  0  0  0  0  0  0  0
   -0.0838   -2.5927    3.3535 C   0  0  0  0  0  0  0  0  0  0  0  0
   -0.3833   -1.2307    3.4531 C   0  0  0  0  0  0  0  0  0  0  0  0
   -0.9790   -0.3991    4.4977 C   0  0  0  0  0  0  0  0  0  0  0  0
   -1.4437   -0.8629    5.8129 N   0  0  0  0  0  0  0  0  0  0  0  0
   -1.3432   -2.0906    6.1256 N   0  0  0  0  0  0  0  0  0  0  0  0
   -1.8079   -2.5545    7.4408 C   0  0  0  0  0  0  0  0  0  0  0  0
   -0.9843   -3.3286    8.2510 C   0  0  0  0  0  0  0  0  0  0  0  0
   -1.1843   -3.2164    9.6451 C   0  0  0  0  0  0  0  0  0  0  0  0
   -2.4996   -3.0311   10.0674 C   0  0  0  0  0  0  0  0  0  0  0  0
   -3.0090   -3.4889   11.7428 S   0  0  0  0  0  0  0  0  0  0  0  0
   -2.7359   -5.2101   11.9894 N   0  0  0  0  0  0  0  0  0  0  0  0
   -2.1903   -2.6915   12.7607 O   0  0  0  0  0  0  0  0  0  0  0  0
   -4.4959   -3.1768   11.9271 O   0  0  0  0  0  0  0  0  0  0  0  0
   -3.3620   -2.5150    9.2175 C   0  0  0  0  0  0  0  0  0  0  0  0
   -2.9658   -2.1580    7.9239 C   0  0  0  0  0  0  0  0  0  0  0  0
   -1.0250    0.8241    4.0571 C   0  0  0  0  0  0  0  0  0  0  0  0
   -1.5390    1.9307    4.7836 O   0  0  0  0  0  0  0  0  0  0  0  0
   -0.4952    0.8918    2.7650 N   0  0  0  0  0  0  0  0  0  0  0  0
   -0.0949   -0.3710    2.3786 C   0  0  0  0  0  0  0  0  0  0  0  0
    0.6366    1.0055    0.2457 H   0  0  0  0  0  0  0  0  0  0  0  0
    0.6366   -0.3651   -0.8380 H   0  0  0  0  0  0  0  0  0  0  0  0
    2.0632    0.0074    0.0995 H   0  0  0  0  0  0  0  0  0  0  0  0
    1.2374   -2.6108    0.2501 H   0  0  0  0  0  0  0  0  0  0  0  0
    0.7185   -4.1248    2.1162 H   0  0  0  0  0  0  0  0  0  0  0  0
   -0.3000   -3.2521    4.1679 H   0  0  0  0  0  0  0  0  0  0  0  0
   -0.2378   -3.9756    7.8399 H   0  0  0  0  0  0  0  0  0  0  0  0
   -0.3711   -3.2707   10.3383 H   0  0  0  0  0  0  0  0  0  0  0  0
   -3.0229   -5.4680   12.9335 H   0  0  0  0  0  0  0  0  0  0  0  0
   -3.2815   -5.7415   11.3109 H   0  0  0  0  0  0  0  0  0  0  0  0
   -4.3777   -2.3666    9.5194 H   0  0  0  0  0  0  0  0  0  0  0  0
   -3.6121   -1.5555    7.3204 H   0  0  0  0  0  0  0  0  0  0  0  0
   -1.9014    1.7983    5.7062 H   0  0  0  0  0  0  0  0  0  0  0  0
   -0.4173    1.7373    2.1998 H   0  0  0  0  0  0  0  0  0  0  0  0
  1  2  1  0  0  0  0
  1 24  1  0  0  0  0
  1 25  1  0  0  0  0
  1 26  1  0  0  0  0
  2  3  1  0  0  0  0
  2 23  2  0  0  0  0
  3  4  2  0  0  0  0
  3 27  1  0  0  0  0
  4  5  1  0  0  0  0
  4 28  1  0  0  0  0
  5  6  2  0  0  0  0
  5 29  1  0  0  0  0
  6  7  1  0  0  0  0
  6 23  1  0  0  0  0
  7  8  1  0  0  0  0
  7 20  2  0  0  0  0
  8  9  2  0  0  0  0
  9 10  1  0  0  0  0
 10 11  1  0  0  0  0
 10 19  2  0  0  0  0
 11 12  2  0  0  0  0
 11 30  1  0  0  0  0
 12 13  1  0  0  0  0
 12 31  1  0  0  0  0
 13 14  1  0  0  0  0
 13 18  2  0  0  0  0
 14 15  1  0  0  0  0
 14 16  2  0  0  0  0
 14 17  2  0  0  0  0
 15 32  1  0  0  0  0
 15 33  1  0  0  0  0
 18 19  1  0  0  0  0
 18 34  1  0  0  0  0
 19 35  1  0  0  0  0
 20 21  1  0  0  0  0
 20 22  1  0  0  0  0
 21 36  1  0  0  0  0
 22 23  1  0  0  0  0
 22 37  1  0  0  0  0
M  END
