REMARK  Name = 
REMARK  7 active torsions:
REMARK  status: ('A' for Active; 'I' for Inactive)
REMARK    1  A    between atoms: C_1  and  O_2
REMARK    2  A    between atoms: O_2  and  C_3
REMARK    3  A    between atoms: N_10  and  C_11
REMARK    4  A    between atoms: N_18  and  C_19
REMARK    5  A    between atoms: C_19  and  C_20
REMARK    6  A    between atoms: C_29  and  O_30
REMARK    7  A    between atoms: O_30  and  C_31
REMARK                            x       y       z     vdW  Elec       q    Type
REMARK                         _______ _______ _______ _____ _____    ______ ____
ROOT
ATOM      1  C   UNL     1       0.849  -0.625   2.417  0.00  0.00    +0.000 A 
ATOM      2  C   UNL     1      -0.107  -1.209   3.201  0.00  0.00    +0.000 A 
ATOM      3  C   UNL     1       0.239  -2.263   4.076  0.00  0.00    +0.000 A 
ATOM      4  N   UNL     1      -0.731  -2.864   4.836  0.00  0.00    +0.000 NA
ATOM      5  C   UNL     1      -0.341  -3.828   5.623  0.00  0.00    +0.000 A 
ATOM      6  N   UNL     1       0.937  -4.293   5.782  0.00  0.00    +0.000 NA
ATOM      7  C   UNL     1       1.877  -3.718   5.071  0.00  0.00    +0.000 A 
ATOM      8  N   UNL     1       3.268  -4.169   5.229  0.00  0.00    +0.000 N 
ATOM      9  C   UNL     1       1.590  -2.670   4.151  0.00  0.00    +0.000 A 
ATOM     10  C   UNL     1       2.562  -2.041   3.341  0.00  0.00    +0.000 A 
ATOM     11  C   UNL     1       2.192  -1.042   2.486  0.00  0.00    +0.000 A 
ATOM     12  H   UNL     1       4.011  -3.732   4.683  0.00  0.00    +0.000 HD
ENDROOT
BRANCH   8  13
ATOM     13  C   UNL     1       3.587  -5.250   6.173  0.00  0.00    +0.000 A 
ATOM     14  C   UNL     1       3.031  -6.523   6.041  0.00  0.00    +0.000 A 
ATOM     15  C   UNL     1       3.484  -7.565   6.825  0.00  0.00    +0.000 A 
ATOM     16  C   UNL     1       4.499  -7.337   7.759  0.00  0.00    +0.000 A 
ATOM     17  C   UNL     1       5.051  -6.051   7.892  0.00  0.00    +0.000 A 
ATOM     18  C   UNL     1       6.016  -6.135   8.875  0.00  0.00    +0.000 A 
ATOM     19  N   UNL     1       6.066  -7.449   9.350  0.00  0.00    +0.000 NA
ATOM     20  N   UNL     1       5.195  -8.186   8.725  0.00  0.00    +0.000 N 
ATOM     21  C   UNL     1       4.584  -5.014   7.093  0.00  0.00    +0.000 A 
BRANCH  20  22
ATOM     22  C   UNL     1       4.954  -9.619   8.949  0.00  0.00    +0.000 C 
BRANCH  22  23
ATOM     23  C   UNL     1       6.231 -10.396   8.674  0.00  0.00    +0.000 A 
ATOM     24  C   UNL     1       7.418 -10.139   9.415  0.00  0.00    +0.000 A 
ATOM     25  C   UNL     1       8.643 -10.643   8.950  0.00  0.00    +0.000 A 
ATOM     26  C   UNL     1       8.663 -11.552   8.020  0.00  0.00    +0.000 A 
ATOM     27  C   UNL     1       7.461 -12.038   7.488  0.00  0.00    +0.000 A 
ATOM     28  C   UNL     1       6.255 -11.334   7.725  0.00  0.00    +0.000 A 
ENDBRANCH  22  23
ENDBRANCH  20  22
ENDBRANCH   8  13
BRANCH   1  30
ATOM     29  C   UNL     1       0.979   0.075   0.062  0.00  0.00    +0.000 C 
ATOM     30  O   UNL     1       0.506   0.288   1.384  0.00  0.00    +0.000 OA
ENDBRANCH   1  30
BRANCH  11  31
ATOM     31  O   UNL     1       3.167  -0.421   1.662  0.00  0.00    +0.000 OA
ATOM     32  C   UNL     1       2.786   0.618   0.771  0.00  0.00    +0.000 C 
ENDBRANCH  11  31
TORSDOF 5
