REMARK  Name = 
REMARK  6 active torsions:
REMARK  status: ('A' for Active; 'I' for Inactive)
REMARK    1  A    between atoms: C_1  and  C_2
REMARK    2  A    between atoms: C_7  and  N_8
REMARK    3  A    between atoms: N_9  and  C_10
REMARK    4  A    between atoms: C_13  and  S_14
REMARK    5  A    between atoms: S_14  and  N_15
REMARK    6  A    between atoms: C_20  and  O_21
REMARK                            x       y       z     vdW  Elec       q    Type
REMARK                         _______ _______ _______ _____ _____    ______ ____
ROOT
ATOM      1  N   UNL     1      -0.745   3.067   5.065  0.00  0.00    +0.000 NA
ATOM      2  N   UNL     1      -1.082   2.253   5.981  0.00  0.00    +0.000 NA
ENDROOT
BRANCH   1   9
ATOM      3  C   UNL     1       1.033  -0.093  -0.017  0.00  0.00    +0.000 C 
ATOM      4  C   UNL     1       0.527  -0.072   1.416  0.00  0.00    +0.000 A 
ATOM      5  C   UNL     1       0.283  -1.255   2.077  0.00  0.00    +0.000 A 
ATOM      6  C   UNL     1      -0.192  -1.249   3.389  0.00  0.00    +0.000 A 
ATOM      7  C   UNL     1      -0.413  -0.053   4.044  0.00  0.00    +0.000 A 
ATOM      8  C   UNL     1      -0.164   1.153   3.383  0.00  0.00    +0.000 A 
ATOM      9  C   UNL     1      -0.285   2.559   3.764  0.00  0.00    +0.000 A 
ATOM     10  C   UNL     1       0.087   3.282   2.748  0.00  0.00    +0.000 A 
ATOM     11  N   UNL     1       0.460   2.459   1.681  0.00  0.00    +0.000 N 
ATOM     12  C   UNL     1       0.310   1.141   2.059  0.00  0.00    +0.000 A 
ATOM     13  H   UNL     1       0.789   2.781   0.771  0.00  0.00    +0.000 HD
BRANCH  10  14
ATOM     14  O   UNL     1       0.110   4.702   2.726  0.00  0.00    +0.000 OA
ATOM     15  H   UNL     1      -0.173   5.219   3.534  0.00  0.00    +0.000 HD
ENDBRANCH  10  14
ENDBRANCH   1   9
BRANCH   2  16
ATOM     16  C   UNL     1      -1.542   2.761   7.282  0.00  0.00    +0.000 A 
ATOM     17  C   UNL     1      -1.001   2.308   8.480  0.00  0.00    +0.000 A 
ATOM     18  C   UNL     1      -1.003   3.220   9.559  0.00  0.00    +0.000 A 
ATOM     19  C   UNL     1      -2.098   4.078   9.640  0.00  0.00    +0.000 A 
ATOM     20  C   UNL     1      -2.777   4.330   8.541  0.00  0.00    +0.000 A 
ATOM     21  C   UNL     1      -2.405   3.753   7.322  0.00  0.00    +0.000 A 
BRANCH  19  22
ATOM     22  S   UNL     1      -2.574   4.828  11.217  0.00  0.00    +0.000 S 
ATOM     23  O   UNL     1      -1.415   5.675  11.750  0.00  0.00    +0.000 OA
ATOM     24  O   UNL     1      -3.802   5.718  11.009  0.00  0.00    +0.000 OA
BRANCH  22  25
ATOM     25  N   UNL     1      -2.957   3.562  12.377  0.00  0.00    +0.000 NA
ATOM     26  H   UNL     1      -3.225   3.984  13.266  0.00  0.00    +0.000 HD
ATOM     27  H   UNL     1      -3.729   2.998  12.022  0.00  0.00    +0.000 HD
ENDBRANCH  22  25
ENDBRANCH  19  22
ENDBRANCH   2  16
TORSDOF 5
