
 OpenBabel03132512093D

 37 39  0  0  0  0  0  0  0  0999 V2000
    1.0334   -0.0927   -0.0171 C   0  0  0  0  0  0  0  0  0  0  0  0
    0.5267   -0.0723    1.4158 C   0  0  0  0  0  0  0  0  0  0  0  0
    0.2830   -1.2551    2.0770 C   0  0  0  0  0  0  0  0  0  0  0  0
   -0.1922   -1.2487    3.3886 C   0  0  0  0  0  0  0  0  0  0  0  0
   -0.4127   -0.0535    4.0440 C   0  0  0  0  0  0  0  0  0  0  0  0
   -0.1637    1.1532    3.3833 C   0  0  0  0  0  0  0  0  0  0  0  0
   -0.2848    2.5595    3.7643 C   0  0  0  0  0  0  0  0  0  0  0  0
   -0.7448    3.0669    5.0650 N   0  0  0  0  0  0  0  0  0  0  0  0
   -1.0816    2.2533    5.9814 N   0  0  0  0  0  0  0  0  0  0  0  0
   -1.5417    2.7608    7.2821 C   0  0  0  0  0  0  0  0  0  0  0  0
   -1.0007    2.3076    8.4804 C   0  0  0  0  0  0  0  0  0  0  0  0
   -1.0026    3.2200    9.5590 C   0  0  0  0  0  0  0  0  0  0  0  0
   -2.0976    4.0784    9.6399 C   0  0  0  0  0  0  0  0  0  0  0  0
   -2.5738    4.8284   11.2169 S   0  0  0  0  0  0  0  0  0  0  0  0
   -2.9570    3.5615   12.3770 N   0  0  0  0  0  0  0  0  0  0  0  0
   -1.4153    5.6746   11.7498 O   0  0  0  0  0  0  0  0  0  0  0  0
   -3.8017    5.7178   11.0086 O   0  0  0  0  0  0  0  0  0  0  0  0
   -2.7769    4.3301    8.5409 C   0  0  0  0  0  0  0  0  0  0  0  0
   -2.4053    3.7526    7.3218 C   0  0  0  0  0  0  0  0  0  0  0  0
    0.0866    3.2823    2.7484 C   0  0  0  0  0  0  0  0  0  0  0  0
    0.1099    4.7019    2.7264 O   0  0  0  0  0  0  0  0  0  0  0  0
    0.4595    2.4594    1.6814 N   0  0  0  0  0  0  0  0  0  0  0  0
    0.3096    1.1407    2.0594 C   0  0  0  0  0  0  0  0  0  0  0  0
    0.6767    0.7737   -0.5339 H   0  0  0  0  0  0  0  0  0  0  0  0
    0.6767   -0.9734   -0.5090 H   0  0  0  0  0  0  0  0  0  0  0  0
    2.1034   -0.0927   -0.0171 H   0  0  0  0  0  0  0  0  0  0  0  0
    0.4596   -2.1866    1.5810 H   0  0  0  0  0  0  0  0  0  0  0  0
   -0.3867   -2.1742    3.8891 H   0  0  0  0  0  0  0  0  0  0  0  0
   -0.7722   -0.0509    5.0518 H   0  0  0  0  0  0  0  0  0  0  0  0
   -0.6035    1.3191    8.5803 H   0  0  0  0  0  0  0  0  0  0  0  0
   -0.2073    3.2504   10.2742 H   0  0  0  0  0  0  0  0  0  0  0  0
   -3.2254    3.9841   13.2657 H   0  0  0  0  0  0  0  0  0  0  0  0
   -3.7291    2.9975   12.0218 H   0  0  0  0  0  0  0  0  0  0  0  0
   -3.6230    4.9839    8.5803 H   0  0  0  0  0  0  0  0  0  0  0  0
   -2.8284    4.1220    6.4110 H   0  0  0  0  0  0  0  0  0  0  0  0
   -0.1735    5.2192    3.5340 H   0  0  0  0  0  0  0  0  0  0  0  0
    0.7889    2.7814    0.7714 H   0  0  0  0  0  0  0  0  0  0  0  0
  1  2  1  0  0  0  0
  1 24  1  0  0  0  0
  1 25  1  0  0  0  0
  1 26  1  0  0  0  0
  2  3  1  0  0  0  0
  2 23  2  0  0  0  0
  3  4  2  0  0  0  0
  3 27  1  0  0  0  0
  4  5  1  0  0  0  0
  4 28  1  0  0  0  0
  5  6  2  0  0  0  0
  5 29  1  0  0  0  0
  6  7  1  0  0  0  0
  6 23  1  0  0  0  0
  7  8  1  0  0  0  0
  7 20  2  0  0  0  0
  8  9  2  0  0  0  0
  9 10  1  0  0  0  0
 10 11  1  0  0  0  0
 10 19  2  0  0  0  0
 11 12  2  0  0  0  0
 11 30  1  0  0  0  0
 12 13  1  0  0  0  0
 12 31  1  0  0  0  0
 13 14  1  0  0  0  0
 13 18  2  0  0  0  0
 14 15  1  0  0  0  0
 14 16  2  0  0  0  0
 14 17  2  0  0  0  0
 15 32  1  0  0  0  0
 15 33  1  0  0  0  0
 18 19  1  0  0  0  0
 18 34  1  0  0  0  0
 19 35  1  0  0  0  0
 20 21  1  0  0  0  0
 20 22  1  0  0  0  0
 21 36  1  0  0  0  0
 22 23  1  0  0  0  0
 22 37  1  0  0  0  0
M  END
