
 OpenBabel03132512093D

 52 56  0  0  0  0  0  0  0  0999 V2000
    0.9789    0.0752    0.0624 C   0  0  0  0  0  0  0  0  0  0  0  0
    0.5056    0.2878    1.3842 O   0  0  0  0  0  0  0  0  0  0  0  0
    0.8486   -0.6249    2.4166 C   0  0  0  0  0  0  0  0  0  0  0  0
   -0.1067   -1.2090    3.2009 C   0  0  0  0  0  0  0  0  0  0  0  0
    0.2391   -2.2632    4.0756 C   0  0  0  0  0  0  0  0  0  0  0  0
   -0.7314   -2.8642    4.8362 N   0  0  0  0  0  0  0  0  0  0  0  0
   -0.3405   -3.8284    5.6232 C   0  0  0  0  0  0  0  0  0  0  0  0
    0.9370   -4.2932    5.7815 N   0  0  0  0  0  0  0  0  0  0  0  0
    1.8774   -3.7184    5.0712 C   0  0  0  0  0  0  0  0  0  0  0  0
    3.2676   -4.1693    5.2288 N   0  0  0  0  0  0  0  0  0  0  0  0
    3.5873   -5.2501    6.1725 C   0  0  0  0  0  0  0  0  0  0  0  0
    3.0315   -6.5229    6.0409 C   0  0  0  0  0  0  0  0  0  0  0  0
    3.4839   -7.5652    6.8254 C   0  0  0  0  0  0  0  0  0  0  0  0
    4.4990   -7.3373    7.7594 C   0  0  0  0  0  0  0  0  0  0  0  0
    5.0513   -6.0511    7.8918 C   0  0  0  0  0  0  0  0  0  0  0  0
    6.0158   -6.1350    8.8752 C   0  0  0  0  0  0  0  0  0  0  0  0
    6.0661   -7.4490    9.3501 N   0  0  0  0  0  0  0  0  0  0  0  0
    5.1954   -8.1861    8.7248 N   0  0  0  0  0  0  0  0  0  0  0  0
    4.9544   -9.6187    8.9492 C   0  0  0  0  0  0  0  0  0  0  0  0
    6.2309  -10.3965    8.6735 C   0  0  0  0  0  0  0  0  0  0  0  0
    7.4176  -10.1393    9.4150 C   0  0  0  0  0  0  0  0  0  0  0  0
    8.6434  -10.6431    8.9499 C   0  0  0  0  0  0  0  0  0  0  0  0
    8.6626  -11.5522    8.0201 C   0  0  0  0  0  0  0  0  0  0  0  0
    7.4608  -12.0384    7.4882 C   0  0  0  0  0  0  0  0  0  0  0  0
    6.2553  -11.3339    7.7246 C   0  0  0  0  0  0  0  0  0  0  0  0
    4.5839   -5.0140    7.0926 C   0  0  0  0  0  0  0  0  0  0  0  0
    1.5903   -2.6699    4.1514 C   0  0  0  0  0  0  0  0  0  0  0  0
    2.5624   -2.0406    3.3409 C   0  0  0  0  0  0  0  0  0  0  0  0
    2.1916   -1.0422    2.4861 C   0  0  0  0  0  0  0  0  0  0  0  0
    3.1669   -0.4208    1.6619 O   0  0  0  0  0  0  0  0  0  0  0  0
    2.7864    0.6178    0.7714 C   0  0  0  0  0  0  0  0  0  0  0  0
    0.6222    0.8577   -0.5743 H   0  0  0  0  0  0  0  0  0  0  0  0
    0.6222   -0.8674   -0.2969 H   0  0  0  0  0  0  0  0  0  0  0  0
    2.0489    0.0752    0.0624 H   0  0  0  0  0  0  0  0  0  0  0  0
   -1.1193   -0.8667    3.1523 H   0  0  0  0  0  0  0  0  0  0  0  0
   -1.0991   -4.3066    6.2069 H   0  0  0  0  0  0  0  0  0  0  0  0
    4.0105   -3.7321    4.6834 H   0  0  0  0  0  0  0  0  0  0  0  0
    2.2511   -6.6922    5.3288 H   0  0  0  0  0  0  0  0  0  0  0  0
    3.0599   -8.5419    6.7192 H   0  0  0  0  0  0  0  0  0  0  0  0
    6.6260   -5.3259    9.2184 H   0  0  0  0  0  0  0  0  0  0  0  0
    4.6536   -9.7751    9.9641 H   0  0  0  0  0  0  0  0  0  0  0  0
    4.1812   -9.9576    8.2918 H   0  0  0  0  0  0  0  0  0  0  0  0
    7.3766   -9.5675   10.3184 H   0  0  0  0  0  0  0  0  0  0  0  0
    9.5618  -10.2788    9.3607 H   0  0  0  0  0  0  0  0  0  0  0  0
    9.5972  -11.9294    7.6608 H   0  0  0  0  0  0  0  0  0  0  0  0
    7.4541  -12.9367    6.9068 H   0  0  0  0  0  0  0  0  0  0  0  0
    5.3780  -11.5501    7.1513 H   0  0  0  0  0  0  0  0  0  0  0  0
    4.9985   -4.0327    7.1925 H   0  0  0  0  0  0  0  0  0  0  0  0
    3.5864   -2.3458    3.3970 H   0  0  0  0  0  0  0  0  0  0  0  0
    2.0614    0.2454    0.0782 H   0  0  0  0  0  0  0  0  0  0  0  0
    2.3642    1.4281    1.3282 H   0  0  0  0  0  0  0  0  0  0  0  0
    3.6469    0.9624    0.2369 H   0  0  0  0  0  0  0  0  0  0  0  0
  1  2  1  0  0  0  0
  1 32  1  0  0  0  0
  1 33  1  0  0  0  0
  1 34  1  0  0  0  0
  2  3  1  0  0  0  0
  3  4  1  0  0  0  0
  3 29  2  0  0  0  0
  4  5  2  0  0  0  0
  4 35  1  0  0  0  0
  5  6  1  0  0  0  0
  5 27  1  0  0  0  0
  6  7  2  0  0  0  0
  7  8  1  0  0  0  0
  7 36  1  0  0  0  0
  8  9  2  0  0  0  0
  9 10  1  0  0  0  0
  9 27  1  0  0  0  0
 10 11  1  0  0  0  0
 10 37  1  0  0  0  0
 11 12  1  0  0  0  0
 11 26  2  0  0  0  0
 12 13  2  0  0  0  0
 12 38  1  0  0  0  0
 13 14  1  0  0  0  0
 13 39  1  0  0  0  0
 14 15  2  0  0  0  0
 14 18  1  0  0  0  0
 15 16  1  0  0  0  0
 15 26  1  0  0  0  0
 16 17  2  0  0  0  0
 16 40  1  0  0  0  0
 17 18  1  0  0  0  0
 18 19  1  0  0  0  0
 19 20  1  0  0  0  0
 19 41  1  0  0  0  0
 19 42  1  0  0  0  0
 20 21  1  0  0  0  0
 20 25  2  0  0  0  0
 21 22  2  0  0  0  0
 21 43  1  0  0  0  0
 22 23  1  0  0  0  0
 22 44  1  0  0  0  0
 23 24  2  0  0  0  0
 23 45  1  0  0  0  0
 24 25  1  0  0  0  0
 24 46  1  0  0  0  0
 25 47  1  0  0  0  0
 26 48  1  0  0  0  0
 27 28  2  0  0  0  0
 28 29  1  0  0  0  0
 28 49  1  0  0  0  0
 29 30  1  0  0  0  0
 30 31  1  0  0  0  0
 31 50  1  0  0  0  0
 31 51  1  0  0  0  0
 31 52  1  0  0  0  0
M  END
