REMARK  Name = 
REMARK  8 active torsions:
REMARK  status: ('A' for Active; 'I' for Inactive)
REMARK    1  A    between atoms: C_1  and  C_2
REMARK    2  A    between atoms: C_2  and  C_3
REMARK    3  A    between atoms: C_2  and  C_4
REMARK    4  A    between atoms: C_8  and  N_9
REMARK    5  A    between atoms: N_10  and  C_11
REMARK    6  A    between atoms: C_14  and  S_15
REMARK    7  A    between atoms: S_15  and  N_16
REMARK    8  A    between atoms: C_21  and  O_22
REMARK                            x       y       z     vdW  Elec       q    Type
REMARK                         _______ _______ _______ _____ _____    ______ ____
ROOT
ATOM      1  C   UNL     1      -1.023   1.348  -0.398  0.00  0.00    +0.000 A 
ATOM      2  C   UNL     1      -1.715   0.137  -0.398  0.00  0.00    +0.000 A 
ATOM      3  C   UNL     1      -3.095   0.123  -0.386  0.00  0.00    +0.000 A 
ATOM      4  C   UNL     1      -3.799   1.332  -0.381  0.00  0.00    +0.000 A 
ATOM      5  C   UNL     1      -5.220   1.676  -0.369  0.00  0.00    +0.000 A 
ATOM      6  C   UNL     1      -5.316   2.973  -0.368  0.00  0.00    +0.000 A 
ATOM      7  N   UNL     1      -4.044   3.552  -0.378  0.00  0.00    +0.000 N 
ATOM      8  C   UNL     1      -3.096   2.550  -0.386  0.00  0.00    +0.000 A 
ATOM      9  C   UNL     1      -1.706   2.544  -0.397  0.00  0.00    +0.000 A 
ATOM     10  H   UNL     1      -3.848   4.553  -0.379  0.00  0.00    +0.000 HD
ENDROOT
BRANCH   1  12
ATOM     11  C   UNL     1       1.004   0.004   0.100  0.00  0.00    +0.000 C 
ATOM     12  C   UNL     1       0.497   1.348  -0.398  0.00  0.00    +0.000 C 
ATOM     13  C   UNL     1       1.004   1.589  -1.810  0.00  0.00    +0.000 C 
ENDBRANCH   1  12
BRANCH   5  14
ATOM     14  N   UNL     1      -6.340   0.725  -0.360  0.00  0.00    +0.000 NA
ATOM     15  N   UNL     1      -6.112  -0.526  -0.363  0.00  0.00    +0.000 NA
BRANCH  15  16
ATOM     16  C   UNL     1      -7.233  -1.477  -0.354  0.00  0.00    +0.000 A 
ATOM     17  C   UNL     1      -8.355  -1.291  -1.209  0.00  0.00    +0.000 A 
ATOM     18  C   UNL     1      -9.528  -2.028  -0.977  0.00  0.00    +0.000 A 
ATOM     19  C   UNL     1      -9.504  -3.054  -0.178  0.00  0.00    +0.000 A 
ATOM     20  C   UNL     1      -8.307  -3.432   0.444  0.00  0.00    +0.000 A 
ATOM     21  C   UNL     1      -7.212  -2.534   0.459  0.00  0.00    +0.000 A 
BRANCH  19  22
ATOM     22  S   UNL     1     -11.020  -3.994   0.131  0.00  0.00    +0.000 S 
ATOM     23  O   UNL     1     -11.544  -4.564  -1.189  0.00  0.00    +0.000 OA
ATOM     24  O   UNL     1     -10.720  -5.141   1.099  0.00  0.00    +0.000 OA
BRANCH  22  25
ATOM     25  N   UNL     1     -12.235  -2.933   0.836  0.00  0.00    +0.000 NA
ATOM     26  H   UNL     1     -13.089  -3.463   1.010  0.00  0.00    +0.000 HD
ATOM     27  H   UNL     1     -11.885  -2.553   1.715  0.00  0.00    +0.000 HD
ENDBRANCH  22  25
ENDBRANCH  19  22
ENDBRANCH  15  16
ENDBRANCH   5  14
BRANCH   6  28
ATOM     28  O   UNL     1      -6.538   3.697  -0.358  0.00  0.00    +0.000 OA
ATOM     29  H   UNL     1      -7.410   3.206  -0.351  0.00  0.00    +0.000 HD
ENDBRANCH   6  28
TORSDOF 6
