REMARK  Name = 
REMARK  2 active torsions:
REMARK  status: ('A' for Active; 'I' for Inactive)
REMARK    1  A    between atoms: C_12  and  C_13
REMARK    2  A    between atoms: C_17  and  O_18
REMARK                            x       y       z     vdW  Elec       q    Type
REMARK                         _______ _______ _______ _____ _____    ______ ____
ROOT
ATOM      1  O   UNL     1       1.015   0.014  -0.098  0.00  0.00    +0.000 OA
ATOM      2  C   UNL     1       2.286   0.014  -0.098  0.00  0.00    +0.000 C 
ATOM      3  N   UNL     1       3.459   1.425  -0.098  0.00  0.00    +0.000 N 
ATOM      4  C   UNL     1       4.969   0.481  -0.099  0.00  0.00    +0.000 A 
ATOM      5  C   UNL     1       6.205   0.846  -0.099  0.00  0.00    +0.000 A 
ATOM      6  C   UNL     1       7.231  -0.109  -0.093  0.00  0.00    +0.000 A 
ATOM      7  C   UNL     1       6.885  -1.470  -0.099  0.00  0.00    +0.000 A 
ATOM      8  I   UNL     1       8.428  -2.967  -0.109  0.00  0.00    +0.000 I 
ATOM      9  C   UNL     1       5.603  -1.837  -0.098  0.00  0.00    +0.000 A 
ATOM     10  C   UNL     1       4.564  -0.861  -0.098  0.00  0.00    +0.000 A 
ATOM     11  C   UNL     1       3.253  -1.149  -0.097  0.00  0.00    +0.000 C 
ATOM     12  C   UNL     1       2.811  -2.436  -0.097  0.00  0.00    +0.000 C 
ATOM     13  H   UNL     1       3.297   2.432  -0.098  0.00  0.00    +0.000 HD
ENDROOT
BRANCH  12  14
ATOM     14  C   UNL     1       1.320  -2.728  -0.096  0.00  0.00    +0.000 A 
ATOM     15  C   UNL     1       0.748  -3.446   0.935  0.00  0.00    +0.000 A 
ATOM     16  C   UNL     1      -0.550  -3.704   0.943  0.00  0.00    +0.000 A 
ATOM     17 BR   UNL     1      -1.312  -4.734   2.425  0.00  0.00    +0.000 Br
ATOM     18  C   UNL     1      -1.345  -3.283  -0.027  0.00  0.00    +0.000 A 
ATOM     19  C   UNL     1      -0.842  -2.559  -1.090  0.00  0.00    +0.000 A 
ATOM     20 BR   UNL     1      -2.030  -1.940  -2.521  0.00  0.00    +0.000 Br
ATOM     21  C   UNL     1       0.516  -2.276  -1.133  0.00  0.00    +0.000 A 
BRANCH  18  22
ATOM     22  O   UNL     1      -2.733  -3.578   0.027  0.00  0.00    +0.000 OA
ATOM     23  H   UNL     1      -3.340  -3.262  -0.703  0.00  0.00    +0.000 HD
ENDBRANCH  18  22
ENDBRANCH  12  14
TORSDOF 2
