
 OpenBabel03132512093D

 29 31  0  0  0  0  0  0  0  0999 V2000
    1.0154    0.0138   -0.0978 O   0  0  0  0  0  0  0  0  0  0  0  0
    2.2863    0.0138   -0.0978 C   0  0  0  0  0  0  0  0  0  0  0  0
    3.4591    1.4250   -0.0983 N   0  0  0  0  0  0  0  0  0  0  0  0
    4.9688    0.4809   -0.0986 C   0  0  0  0  0  0  0  0  0  0  0  0
    6.2045    0.8459   -0.0991 C   0  0  0  0  0  0  0  0  0  0  0  0
    7.2313   -0.1086   -0.0926 C   0  0  0  0  0  0  0  0  0  0  0  0
    6.8850   -1.4697   -0.0988 C   0  0  0  0  0  0  0  0  0  0  0  0
    8.4277   -2.9672   -0.1089 I   0  0  0  0  0  0  0  0  0  0  0  0
    5.6033   -1.8366   -0.0983 C   0  0  0  0  0  0  0  0  0  0  0  0
    4.5644   -0.8611   -0.0978 C   0  0  0  0  0  0  0  0  0  0  0  0
    3.2529   -1.1492   -0.0974 C   0  0  0  0  0  0  0  0  0  0  0  0
    2.8114   -2.4360   -0.0966 C   0  0  0  0  0  0  0  0  0  0  0  0
    1.3196   -2.7276   -0.0962 C   0  0  0  0  0  0  0  0  0  0  0  0
    0.7484   -3.4455    0.9355 C   0  0  0  0  0  0  0  0  0  0  0  0
   -0.5499   -3.7035    0.9425 C   0  0  0  0  0  0  0  0  0  0  0  0
   -1.3119   -4.7345    2.4250 Br  0  0  0  0  0  0  0  0  0  0  0  0
   -1.3454   -3.2825   -0.0266 C   0  0  0  0  0  0  0  0  0  0  0  0
   -2.7333   -3.5777    0.0268 O   0  0  0  0  0  0  0  0  0  0  0  0
   -0.8418   -2.5588   -1.0902 C   0  0  0  0  0  0  0  0  0  0  0  0
   -2.0300   -1.9402   -2.5210 Br  0  0  0  0  0  0  0  0  0  0  0  0
    0.5156   -2.2756   -1.1326 C   0  0  0  0  0  0  0  0  0  0  0  0
    3.2973    2.4321   -0.0984 H   0  0  0  0  0  0  0  0  0  0  0  0
    6.4493    1.8875   -0.1044 H   0  0  0  0  0  0  0  0  0  0  0  0
    8.2577    0.1937   -0.0832 H   0  0  0  0  0  0  0  0  0  0  0  0
    5.3515   -2.8766   -0.0984 H   0  0  0  0  0  0  0  0  0  0  0  0
    3.5142   -3.2428   -0.0963 H   0  0  0  0  0  0  0  0  0  0  0  0
    1.3621   -3.7972    1.7384 H   0  0  0  0  0  0  0  0  0  0  0  0
   -3.3400   -3.2623   -0.7028 H   0  0  0  0  0  0  0  0  0  0  0  0
    0.9332   -1.7208   -1.9467 H   0  0  0  0  0  0  0  0  0  0  0  0
  1  2  2  0  0  0  0
  2  3  1  0  0  0  0
  2 11  1  0  0  0  0
  3  4  1  0  0  0  0
  3 22  1  0  0  0  0
  4  5  1  0  0  0  0
  4 10  2  0  0  0  0
  5  6  2  0  0  0  0
  5 23  1  0  0  0  0
  6  7  1  0  0  0  0
  6 24  1  0  0  0  0
  7  8  1  0  0  0  0
  7  9  2  0  0  0  0
  9 10  1  0  0  0  0
  9 25  1  0  0  0  0
 10 11  1  0  0  0  0
 11 12  2  0  0  0  0
 12 13  1  0  0  0  0
 12 26  1  0  0  0  0
 13 14  1  0  0  0  0
 13 21  2  0  0  0  0
 14 15  2  0  0  0  0
 14 27  1  0  0  0  0
 15 16  1  0  0  0  0
 15 17  1  0  0  0  0
 17 18  1  0  0  0  0
 17 19  2  0  0  0  0
 18 28  1  0  0  0  0
 19 20  1  0  0  0  0
 19 21  1  0  0  0  0
 21 29  1  0  0  0  0
M  END
