
 OpenBabel03132512093D

 43 45  0  0  0  0  0  0  0  0999 V2000
    1.0039    0.0045    0.0998 C   0  0  0  0  0  0  0  0  0  0  0  0
    0.4972    1.3484   -0.3977 C   0  0  0  0  0  0  0  0  0  0  0  0
    1.0039    1.5894   -1.8104 C   0  0  0  0  0  0  0  0  0  0  0  0
   -1.0228    1.3484   -0.3977 C   0  0  0  0  0  0  0  0  0  0  0  0
   -1.7148    0.1371   -0.3983 C   0  0  0  0  0  0  0  0  0  0  0  0
   -3.0955    0.1234   -0.3862 C   0  0  0  0  0  0  0  0  0  0  0  0
   -3.7986    1.3318   -0.3806 C   0  0  0  0  0  0  0  0  0  0  0  0
   -5.2195    1.6760   -0.3691 C   0  0  0  0  0  0  0  0  0  0  0  0
   -6.3401    0.7247   -0.3605 N   0  0  0  0  0  0  0  0  0  0  0  0
   -6.1123   -0.5256   -0.3628 N   0  0  0  0  0  0  0  0  0  0  0  0
   -7.2329   -1.4770   -0.3542 C   0  0  0  0  0  0  0  0  0  0  0  0
   -8.3550   -1.2906   -1.2088 C   0  0  0  0  0  0  0  0  0  0  0  0
   -9.5278   -2.0276   -0.9766 C   0  0  0  0  0  0  0  0  0  0  0  0
   -9.5041   -3.0536   -0.1776 C   0  0  0  0  0  0  0  0  0  0  0  0
  -11.0196   -3.9939    0.1311 S   0  0  0  0  0  0  0  0  0  0  0  0
  -12.2347   -2.9334    0.8357 N   0  0  0  0  0  0  0  0  0  0  0  0
  -11.5439   -4.5643   -1.1887 O   0  0  0  0  0  0  0  0  0  0  0  0
  -10.7201   -5.1406    1.0994 O   0  0  0  0  0  0  0  0  0  0  0  0
   -8.3069   -3.4319    0.4444 C   0  0  0  0  0  0  0  0  0  0  0  0
   -7.2119   -2.5341    0.4593 C   0  0  0  0  0  0  0  0  0  0  0  0
   -5.3165    2.9733   -0.3678 C   0  0  0  0  0  0  0  0  0  0  0  0
   -6.5384    3.6968   -0.3577 O   0  0  0  0  0  0  0  0  0  0  0  0
   -4.0440    3.5523   -0.3778 N   0  0  0  0  0  0  0  0  0  0  0  0
   -3.0959    2.5496   -0.3861 C   0  0  0  0  0  0  0  0  0  0  0  0
   -1.7058    2.5438   -0.3972 C   0  0  0  0  0  0  0  0  0  0  0  0
    0.6472   -0.7719   -0.5443 H   0  0  0  0  0  0  0  0  0  0  0  0
    0.6472   -0.1652    1.0943 H   0  0  0  0  0  0  0  0  0  0  0  0
    2.0739    0.0045    0.0998 H   0  0  0  0  0  0  0  0  0  0  0  0
    0.8539    2.1247    0.2464 H   0  0  0  0  0  0  0  0  0  0  0  0
    0.6472    0.8131   -2.4546 H   0  0  0  0  0  0  0  0  0  0  0  0
    0.6472    2.5355   -2.1607 H   0  0  0  0  0  0  0  0  0  0  0  0
    2.0739    1.5894   -1.8104 H   0  0  0  0  0  0  0  0  0  0  0  0
   -1.1732   -0.7857   -0.4080 H   0  0  0  0  0  0  0  0  0  0  0  0
   -3.6242   -0.8068   -0.3812 H   0  0  0  0  0  0  0  0  0  0  0  0
   -8.3059   -0.5955   -2.0208 H   0  0  0  0  0  0  0  0  0  0  0  0
  -10.4411   -1.7449   -1.4571 H   0  0  0  0  0  0  0  0  0  0  0  0
  -13.0888   -3.4632    1.0097 H   0  0  0  0  0  0  0  0  0  0  0  0
  -11.8853   -2.5532    1.7154 H   0  0  0  0  0  0  0  0  0  0  0  0
   -8.2206   -4.3937    0.9055 H   0  0  0  0  0  0  0  0  0  0  0  0
   -6.3810   -2.7009    1.1126 H   0  0  0  0  0  0  0  0  0  0  0  0
   -7.4098    3.2063   -0.3509 H   0  0  0  0  0  0  0  0  0  0  0  0
   -3.8481    4.5533   -0.3787 H   0  0  0  0  0  0  0  0  0  0  0  0
   -1.1668    3.4682   -0.4054 H   0  0  0  0  0  0  0  0  0  0  0  0
  1  2  1  0  0  0  0
  1 26  1  0  0  0  0
  1 27  1  0  0  0  0
  1 28  1  0  0  0  0
  2  3  1  0  0  0  0
  2  4  1  0  0  0  0
  2 29  1  0  0  0  0
  3 30  1  0  0  0  0
  3 31  1  0  0  0  0
  3 32  1  0  0  0  0
  4  5  1  0  0  0  0
  4 25  2  0  0  0  0
  5  6  2  0  0  0  0
  5 33  1  0  0  0  0
  6  7  1  0  0  0  0
  6 34  1  0  0  0  0
  7  8  1  0  0  0  0
  7 24  2  0  0  0  0
  8  9  1  0  0  0  0
  8 21  2  0  0  0  0
  9 10  2  0  0  0  0
 10 11  1  0  0  0  0
 11 12  1  0  0  0  0
 11 20  2  0  0  0  0
 12 13  2  0  0  0  0
 12 35  1  0  0  0  0
 13 14  1  0  0  0  0
 13 36  1  0  0  0  0
 14 15  1  0  0  0  0
 14 19  2  0  0  0  0
 15 16  1  0  0  0  0
 15 17  2  0  0  0  0
 15 18  2  0  0  0  0
 16 37  1  0  0  0  0
 16 38  1  0  0  0  0
 19 20  1  0  0  0  0
 19 39  1  0  0  0  0
 20 40  1  0  0  0  0
 21 22  1  0  0  0  0
 21 23  1  0  0  0  0
 22 41  1  0  0  0  0
 23 24  1  0  0  0  0
 23 42  1  0  0  0  0
 24 25  1  0  0  0  0
 25 43  1  0  0  0  0
M  END
