REMARK  Name = 
REMARK  4 active torsions:
REMARK  status: ('A' for Active; 'I' for Inactive)
REMARK    1  A    between atoms: N_1  and  S_2
REMARK    2  A    between atoms: S_2  and  C_5
REMARK    3  A    between atoms: C_8  and  N_9
REMARK    4  A    between atoms: N_10  and  C_11
REMARK                            x       y       z     vdW  Elec       q    Type
REMARK                         _______ _______ _______ _____ _____    ______ ____
ROOT
ATOM      1  C   UNL     1       2.151   5.661   7.161  0.00  0.00    +0.000 A 
ATOM      2  C   UNL     1       2.181   7.087   7.356  0.00  0.00    +0.000 A 
ATOM      3  O   UNL     1       1.892   7.867   6.395  0.00  0.00    +0.000 OA
ATOM      4  N   UNL     1       2.527   7.612   8.599  0.00  0.00    +0.000 N 
ATOM      5  C   UNL     1       2.861   6.711   9.711  0.00  0.00    +0.000 A 
ATOM      6  C   UNL     1       2.468   7.042  10.997  0.00  0.00    +0.000 A 
ATOM      7  C   UNL     1       3.218   6.399  12.010  0.00  0.00    +0.000 A 
ATOM      8  C   UNL     1       3.966   5.326  11.821  0.00  0.00    +0.000 A 
ATOM      9  N   UNL     1       4.426   4.556  12.886  0.00  0.00    +0.000 N 
ATOM     10  C   UNL     1       4.101   4.910  14.194  0.00  0.00    +0.000 A 
ATOM     11  C   UNL     1       4.577   4.114  15.295  0.00  0.00    +0.000 A 
ATOM     12  C   UNL     1       5.211   3.965  10.246  0.00  0.00    +0.000 A 
ATOM     13  C   UNL     1       4.263   5.013  10.524  0.00  0.00    +0.000 A 
ATOM     14  C   UNL     1       3.670   5.683   9.481  0.00  0.00    +0.000 A 
ATOM     15  H   UNL     1       2.548   8.623   8.738  0.00  0.00    +0.000 HD
ATOM     16  H   UNL     1       5.002   3.733  12.709  0.00  0.00    +0.000 HD
ENDROOT
BRANCH   1  18
ATOM     17  N   UNL     1       1.759   3.848   5.676  0.00  0.00    +0.000 NA
ATOM     18  N   UNL     1       1.786   5.106   5.849  0.00  0.00    +0.000 NA
BRANCH  17  22
ATOM     19  C   UNL     1       0.941   2.260   1.851  0.00  0.00    +0.000 A 
ATOM     20  C   UNL     1       1.319   1.394   2.864  0.00  0.00    +0.000 A 
ATOM     21  C   UNL     1       1.355   1.991   4.146  0.00  0.00    +0.000 A 
ATOM     22  C   UNL     1       1.394   3.293   4.365  0.00  0.00    +0.000 A 
ATOM     23  C   UNL     1       1.077   4.098   3.306  0.00  0.00    +0.000 A 
ATOM     24  C   UNL     1       0.897   3.573   2.049  0.00  0.00    +0.000 A 
BRANCH  19  25
ATOM     25  S   UNL     1       0.338   1.609   0.274  0.00  0.00    +0.000 S 
ATOM     26  O   UNL     1       0.848   2.490  -0.870  0.00  0.00    +0.000 OA
ATOM     27  O   UNL     1      -1.193   1.609   0.274  0.00  0.00    +0.000 OA
BRANCH  25  28
ATOM     28  N   UNL     1       0.924  -0.035   0.055  0.00  0.00    +0.000 NA
ATOM     29  H   UNL     1       0.584  -0.402  -0.834  0.00  0.00    +0.000 HD
ATOM     30  H   UNL     1       1.944  -0.035   0.055  0.00  0.00    +0.000 HD
ENDBRANCH  25  28
ENDBRANCH  19  25
ENDBRANCH  17  22
ENDBRANCH   1  18
TORSDOF 4
