
 OpenBabel03132512093D

 39 42  0  0  0  0  0  0  0  0999 V2000
    0.9244   -0.0354    0.0551 N   0  0  0  0  0  0  0  0  0  0  0  0
    0.3377    1.6095    0.2739 S   0  0  0  0  0  0  0  0  0  0  0  0
    0.8479    2.4895   -0.8696 O   0  0  0  0  0  0  0  0  0  0  0  0
   -1.1927    1.6095    0.2739 O   0  0  0  0  0  0  0  0  0  0  0  0
    0.9411    2.2603    1.8514 C   0  0  0  0  0  0  0  0  0  0  0  0
    1.3190    1.3938    2.8639 C   0  0  0  0  0  0  0  0  0  0  0  0
    1.3554    1.9913    4.1459 C   0  0  0  0  0  0  0  0  0  0  0  0
    1.3943    3.2931    4.3647 C   0  0  0  0  0  0  0  0  0  0  0  0
    1.7594    3.8475    5.6763 N   0  0  0  0  0  0  0  0  0  0  0  0
    1.7859    5.1063    5.8490 N   0  0  0  0  0  0  0  0  0  0  0  0
    2.1510    5.6607    7.1606 C   0  0  0  0  0  0  0  0  0  0  0  0
    2.1811    7.0872    7.3564 C   0  0  0  0  0  0  0  0  0  0  0  0
    1.8919    7.8668    6.3952 O   0  0  0  0  0  0  0  0  0  0  0  0
    2.5270    7.6125    8.5991 N   0  0  0  0  0  0  0  0  0  0  0  0
    2.8614    6.7109    9.7109 C   0  0  0  0  0  0  0  0  0  0  0  0
    2.4682    7.0423   10.9970 C   0  0  0  0  0  0  0  0  0  0  0  0
    3.2183    6.3988   12.0096 C   0  0  0  0  0  0  0  0  0  0  0  0
    3.9656    5.3264   11.8211 C   0  0  0  0  0  0  0  0  0  0  0  0
    4.4262    4.5565   12.8864 N   0  0  0  0  0  0  0  0  0  0  0  0
    4.1008    4.9105   14.1936 C   0  0  0  0  0  0  0  0  0  0  0  0
    4.5771    4.1144   15.2951 C   0  0  0  0  0  0  0  0  0  0  0  0
    5.2107    3.9646   10.2465 C   0  0  0  0  0  0  0  0  0  0  0  0
    4.2627    5.0127   10.5239 C   0  0  0  0  0  0  0  0  0  0  0  0
    3.6699    5.6829    9.4812 C   0  0  0  0  0  0  0  0  0  0  0  0
    1.0767    4.0975    3.3057 C   0  0  0  0  0  0  0  0  0  0  0  0
    0.8973    3.5727    2.0486 C   0  0  0  0  0  0  0  0  0  0  0  0
    0.5844   -0.4021   -0.8339 H   0  0  0  0  0  0  0  0  0  0  0  0
    1.9444   -0.0354    0.0551 H   0  0  0  0  0  0  0  0  0  0  0  0
    1.5614    0.3659    2.6920 H   0  0  0  0  0  0  0  0  0  0  0  0
    1.3512    1.3434    4.9974 H   0  0  0  0  0  0  0  0  0  0  0  0
    2.5483    8.6228    8.7377 H   0  0  0  0  0  0  0  0  0  0  0  0
    1.6696    7.7231   11.2058 H   0  0  0  0  0  0  0  0  0  0  0  0
    3.1771    6.8097   12.9967 H   0  0  0  0  0  0  0  0  0  0  0  0
    5.0019    3.7333   12.7093 H   0  0  0  0  0  0  0  0  0  0  0  0
    3.4969    5.7741   14.3794 H   0  0  0  0  0  0  0  0  0  0  0  0
    5.1810    3.2508   15.1093 H   0  0  0  0  0  0  0  0  0  0  0  0
    5.4489    3.7128    9.2342 H   0  0  0  0  0  0  0  0  0  0  0  0
    0.9664    5.1508    3.4581 H   0  0  0  0  0  0  0  0  0  0  0  0
    0.7207    4.2276    1.2210 H   0  0  0  0  0  0  0  0  0  0  0  0
  1  2  1  0  0  0  0
  1 27  1  0  0  0  0
  1 28  1  0  0  0  0
  2  3  2  0  0  0  0
  2  4  2  0  0  0  0
  2  5  1  0  0  0  0
  5  6  1  0  0  0  0
  5 26  2  0  0  0  0
  6  7  2  0  0  0  0
  6 29  1  0  0  0  0
  7  8  1  0  0  0  0
  7 30  1  0  0  0  0
  8  9  1  0  0  0  0
  8 25  2  0  0  0  0
  9 10  2  0  0  0  0
 10 11  1  0  0  0  0
 11 12  1  0  0  0  0
 11 24  2  0  0  0  0
 12 13  2  0  0  0  0
 12 14  1  0  0  0  0
 14 15  1  0  0  0  0
 14 31  1  0  0  0  0
 15 16  2  0  0  0  0
 15 24  1  0  0  0  0
 16 17  1  0  0  0  0
 16 32  1  0  0  0  0
 17 18  2  0  0  0  0
 17 33  1  0  0  0  0
 18 19  1  0  0  0  0
 18 23  1  0  0  0  0
 19 20  1  0  0  0  0
 19 34  1  0  0  0  0
 20 21  2  0  0  0  0
 20 35  1  0  0  0  0
 21 22  1  0  0  0  0
 21 36  1  0  0  0  0
 22 23  2  0  0  0  0
 22 37  1  0  0  0  0
 23 24  1  0  0  0  0
 25 26  1  0  0  0  0
 25 38  1  0  0  0  0
 26 39  1  0  0  0  0
M  END
