
 OpenBabel03132512093D

 44 46  0  0  0  0  0  0  0  0999 V2000
    0.9499    0.0340   -0.0796 C   0  0  0  0  0  0  0  0  0  0  0  0
    0.4432    0.4585   -1.4483 C   0  0  0  0  0  0  0  0  0  0  0  0
   -0.4306   -0.4831   -2.2609 C   0  0  0  0  0  0  0  0  0  0  0  0
    0.7719    1.6811   -1.9462 C   0  0  0  0  0  0  0  0  0  0  0  0
    1.6458    2.6227   -1.1337 C   0  0  0  0  0  0  0  0  0  0  0  0
    2.7912    2.2178   -0.4775 C   0  0  0  0  0  0  0  0  0  0  0  0
    3.4870    3.1093    0.3394 C   0  0  0  0  0  0  0  0  0  0  0  0
    3.0485    4.4055    0.4924 C   0  0  0  0  0  0  0  0  0  0  0  0
    1.8978    4.8312   -0.1612 C   0  0  0  0  0  0  0  0  0  0  0  0
    1.2165    6.0304   -0.2060 N   0  0  0  0  0  0  0  0  0  0  0  0
    0.1025    5.8884   -1.0387 C   0  0  0  0  0  0  0  0  0  0  0  0
   -0.8344    6.9164   -1.3250 O   0  0  0  0  0  0  0  0  0  0  0  0
    0.0481    4.6784   -1.5134 C   0  0  0  0  0  0  0  0  0  0  0  0
   -0.9788    4.1516   -2.4239 N   0  0  0  0  0  0  0  0  0  0  0  0
   -0.9199    2.9448   -2.8179 N   0  0  0  0  0  0  0  0  0  0  0  0
   -1.9467    2.4179   -3.7284 C   0  0  0  0  0  0  0  0  0  0  0  0
   -2.3567    3.1905   -4.8505 C   0  0  0  0  0  0  0  0  0  0  0  0
   -3.5570    2.8706   -5.5058 C   0  0  0  0  0  0  0  0  0  0  0  0
   -4.1423    1.7327   -5.2729 C   0  0  0  0  0  0  0  0  0  0  0  0
   -5.6963    1.3279   -6.1079 S   0  0  0  0  0  0  0  0  0  0  0  0
   -6.9156    2.5270   -5.6916 N   0  0  0  0  0  0  0  0  0  0  0  0
   -5.4768    1.3283   -7.6225 O   0  0  0  0  0  0  0  0  0  0  0  0
   -6.1697   -0.0573   -5.6614 O   0  0  0  0  0  0  0  0  0  0  0  0
   -3.5712    0.8197   -4.3764 C   0  0  0  0  0  0  0  0  0  0  0  0
   -2.5471    1.2491   -3.4977 C   0  0  0  0  0  0  0  0  0  0  0  0
    1.1891    3.9353   -0.9811 C   0  0  0  0  0  0  0  0  0  0  0  0
    0.5932   -0.9498    0.1434 H   0  0  0  0  0  0  0  0  0  0  0  0
    0.5932    0.7190    0.6610 H   0  0  0  0  0  0  0  0  0  0  0  0
    2.0199    0.0340   -0.0796 H   0  0  0  0  0  0  0  0  0  0  0  0
   -1.3757   -0.0185   -2.4500 H   0  0  0  0  0  0  0  0  0  0  0  0
    0.0509   -0.7035   -3.1906 H   0  0  0  0  0  0  0  0  0  0  0  0
   -0.5822   -1.3901   -1.7139 H   0  0  0  0  0  0  0  0  0  0  0  0
    0.4152    1.9799   -2.9097 H   0  0  0  0  0  0  0  0  0  0  0  0
    3.1468    1.2156   -0.5961 H   0  0  0  0  0  0  0  0  0  0  0  0
    4.3684    2.7833    0.8509 H   0  0  0  0  0  0  0  0  0  0  0  0
    3.5932    5.0848    1.1143 H   0  0  0  0  0  0  0  0  0  0  0  0
    1.4825    6.8821    0.2881 H   0  0  0  0  0  0  0  0  0  0  0  0
   -1.6070    6.7337   -1.9330 H   0  0  0  0  0  0  0  0  0  0  0  0
   -1.7562    4.0076   -5.1921 H   0  0  0  0  0  0  0  0  0  0  0  0
   -3.9902    3.5632   -6.1968 H   0  0  0  0  0  0  0  0  0  0  0  0
   -7.7913    2.2989   -6.1621 H   0  0  0  0  0  0  0  0  0  0  0  0
   -7.0619    2.5267   -4.6821 H   0  0  0  0  0  0  0  0  0  0  0  0
   -3.9070   -0.1961   -4.3559 H   0  0  0  0  0  0  0  0  0  0  0  0
   -2.2594    0.6458   -2.6621 H   0  0  0  0  0  0  0  0  0  0  0  0
  1  2  1  0  0  0  0
  1 27  1  0  0  0  0
  1 28  1  0  0  0  0
  1 29  1  0  0  0  0
  2  3  1  0  0  0  0
  2  4  2  0  0  0  0
  3 30  1  0  0  0  0
  3 31  1  0  0  0  0
  3 32  1  0  0  0  0
  4  5  1  0  0  0  0
  4 33  1  0  0  0  0
  5  6  1  0  0  0  0
  5 26  2  0  0  0  0
  6  7  2  0  0  0  0
  6 34  1  0  0  0  0
  7  8  1  0  0  0  0
  7 35  1  0  0  0  0
  8  9  2  0  0  0  0
  8 36  1  0  0  0  0
  9 10  1  0  0  0  0
  9 26  1  0  0  0  0
 10 11  1  0  0  0  0
 10 37  1  0  0  0  0
 11 12  1  0  0  0  0
 11 13  2  0  0  0  0
 12 38  1  0  0  0  0
 13 14  1  0  0  0  0
 13 26  1  0  0  0  0
 14 15  2  0  0  0  0
 15 16  1  0  0  0  0
 16 17  1  0  0  0  0
 16 25  2  0  0  0  0
 17 18  2  0  0  0  0
 17 39  1  0  0  0  0
 18 19  1  0  0  0  0
 18 40  1  0  0  0  0
 19 20  1  0  0  0  0
 19 24  2  0  0  0  0
 20 21  1  0  0  0  0
 20 22  2  0  0  0  0
 20 23  2  0  0  0  0
 21 41  1  0  0  0  0
 21 42  1  0  0  0  0
 24 25  1  0  0  0  0
 24 43  1  0  0  0  0
 25 44  1  0  0  0  0
M  END
