
 OpenBabel03132514253D

 44 46  0  0  0  0  0  0  0  0999 V2000
    1.0073    0.0997    0.0020 C   0  0  0  0  0  0  0  0  0  0  0  0
    0.5007   -0.8330    1.0900 C   0  0  0  0  0  0  0  0  0  0  0  0
   -0.3732   -0.2911    2.2094 C   0  0  0  0  0  0  0  0  0  0  0  0
    0.8293   -2.1528    1.0619 C   0  0  0  0  0  0  0  0  0  0  0  0
    1.7032   -2.6947   -0.0575 C   0  0  0  0  0  0  0  0  0  0  0  0
    2.8294   -1.9851   -0.4244 C   0  0  0  0  0  0  0  0  0  0  0  0
    3.6925   -2.4883   -1.3980 C   0  0  0  0  0  0  0  0  0  0  0  0
    3.4398   -3.7022   -1.9964 C   0  0  0  0  0  0  0  0  0  0  0  0
    2.3113   -4.4313   -1.6391 C   0  0  0  0  0  0  0  0  0  0  0  0
    1.7918   -5.6429   -2.0470 N   0  0  0  0  0  0  0  0  0  0  0  0
    0.6123   -5.8922   -1.3390 C   0  0  0  0  0  0  0  0  0  0  0  0
   -0.1995   -7.0469   -1.4935 O   0  0  0  0  0  0  0  0  0  0  0  0
    0.3661   -4.9134   -0.5181 C   0  0  0  0  0  0  0  0  0  0  0  0
   -0.7832   -4.8171    0.3934 N   0  0  0  0  0  0  0  0  0  0  0  0
   -0.9113   -3.8038    1.1496 N   0  0  0  0  0  0  0  0  0  0  0  0
   -2.0606   -3.7075    2.0610 C   0  0  0  0  0  0  0  0  0  0  0  0
   -2.4612   -4.8274    2.8417 C   0  0  0  0  0  0  0  0  0  0  0  0
   -3.7164   -4.8147    3.4716 C   0  0  0  0  0  0  0  0  0  0  0  0
   -4.3828   -3.7023    3.5720 C   0  0  0  0  0  0  0  0  0  0  0  0
   -6.0064   -3.6904    4.3719 S   0  0  0  0  0  0  0  0  0  0  0  0
   -7.0970   -4.7632    3.5018 N   0  0  0  0  0  0  0  0  0  0  0  0
   -5.8659   -4.1698    5.8186 O   0  0  0  0  0  0  0  0  0  0  0  0
   -6.5713   -2.2681    4.3584 O   0  0  0  0  0  0  0  0  0  0  0  0
   -3.8455   -2.5131    3.0617 C   0  0  0  0  0  0  0  0  0  0  0  0
   -2.7448   -2.5676    2.1722 C   0  0  0  0  0  0  0  0  0  0  0  0
    1.4347   -3.9262   -0.6627 C   0  0  0  0  0  0  0  0  0  0  0  0
    0.6507    1.0913    0.1877 H   0  0  0  0  0  0  0  0  0  0  0  0
    0.6507   -0.2353   -0.9496 H   0  0  0  0  0  0  0  0  0  0  0  0
    2.0773    0.0997    0.0020 H   0  0  0  0  0  0  0  0  0  0  0  0
   -1.3183   -0.7927    2.1987 H   0  0  0  0  0  0  0  0  0  0  0  0
    0.1084   -0.4577    3.1503 H   0  0  0  0  0  0  0  0  0  0  0  0
   -0.5248    0.7585    2.0672 H   0  0  0  0  0  0  0  0  0  0  0  0
    0.4726   -2.8094    1.8277 H   0  0  0  0  0  0  0  0  0  0  0  0
    3.0411   -1.0448    0.0403 H   0  0  0  0  0  0  0  0  0  0  0  0
    4.5576   -1.9264   -1.6820 H   0  0  0  0  0  0  0  0  0  0  0  0
    4.1118   -4.0844   -2.7362 H   0  0  0  0  0  0  0  0  0  0  0  0
    2.2018   -6.2568   -2.7509 H   0  0  0  0  0  0  0  0  0  0  0  0
   -1.0308   -7.1504   -0.9473 H   0  0  0  0  0  0  0  0  0  0  0  0
   -1.8122   -5.6715    2.9479 H   0  0  0  0  0  0  0  0  0  0  0  0
   -4.1245   -5.7204    3.8691 H   0  0  0  0  0  0  0  0  0  0  0  0
   -8.0120   -4.7565    3.9526 H   0  0  0  0  0  0  0  0  0  0  0  0
   -7.1907   -4.4437    2.5376 H   0  0  0  0  0  0  0  0  0  0  0  0
   -4.2643   -1.5693    3.3424 H   0  0  0  0  0  0  0  0  0  0  0  0
   -2.4665   -1.7083    1.5986 H   0  0  0  0  0  0  0  0  0  0  0  0
  1  2  1  0  0  0  0
  1 27  1  0  0  0  0
  1 28  1  0  0  0  0
  1 29  1  0  0  0  0
  2  3  1  0  0  0  0
  2  4  2  0  0  0  0
  3 30  1  0  0  0  0
  3 31  1  0  0  0  0
  3 32  1  0  0  0  0
  4  5  1  0  0  0  0
  4 33  1  0  0  0  0
  5  6  1  0  0  0  0
  5 26  2  0  0  0  0
  6  7  2  0  0  0  0
  6 34  1  0  0  0  0
  7  8  1  0  0  0  0
  7 35  1  0  0  0  0
  8  9  2  0  0  0  0
  8 36  1  0  0  0  0
  9 10  1  0  0  0  0
  9 26  1  0  0  0  0
 10 11  1  0  0  0  0
 10 37  1  0  0  0  0
 11 12  1  0  0  0  0
 11 13  2  0  0  0  0
 12 38  1  0  0  0  0
 13 14  1  0  0  0  0
 13 26  1  0  0  0  0
 14 15  2  0  0  0  0
 15 16  1  0  0  0  0
 16 17  1  0  0  0  0
 16 25  2  0  0  0  0
 17 18  2  0  0  0  0
 17 39  1  0  0  0  0
 18 19  1  0  0  0  0
 18 40  1  0  0  0  0
 19 20  1  0  0  0  0
 19 24  2  0  0  0  0
 20 21  1  0  0  0  0
 20 22  2  0  0  0  0
 20 23  2  0  0  0  0
 21 41  1  0  0  0  0
 21 42  1  0  0  0  0
 24 25  1  0  0  0  0
 24 43  1  0  0  0  0
 25 44  1  0  0  0  0
M  END
