REMARK  Name = 
REMARK  8 active torsions:
REMARK  status: ('A' for Active; 'I' for Inactive)
REMARK    1  A    between atoms: C_1  and  C_2
REMARK    2  A    between atoms: C_2  and  C_3
REMARK    3  A    between atoms: C_4  and  C_5
REMARK    4  A    between atoms: C_11  and  O_12
REMARK    5  A    between atoms: C_13  and  N_14
REMARK    6  A    between atoms: N_15  and  C_16
REMARK    7  A    between atoms: C_19  and  S_20
REMARK    8  A    between atoms: S_20  and  N_21
REMARK                            x       y       z     vdW  Elec       q    Type
REMARK                         _______ _______ _______ _____ _____    ______ ____
ROOT
ATOM      1  C   UNL     1       1.646   2.623  -1.134  0.00  0.00    +0.000 A 
ATOM      2  C   UNL     1       2.791   2.218  -0.477  0.00  0.00    +0.000 A 
ATOM      3  C   UNL     1       3.487   3.109   0.339  0.00  0.00    +0.000 A 
ATOM      4  C   UNL     1       3.049   4.405   0.492  0.00  0.00    +0.000 A 
ATOM      5  C   UNL     1       1.898   4.831  -0.161  0.00  0.00    +0.000 A 
ATOM      6  N   UNL     1       1.216   6.030  -0.206  0.00  0.00    +0.000 N 
ATOM      7  C   UNL     1       0.102   5.888  -1.039  0.00  0.00    +0.000 A 
ATOM      8  C   UNL     1       0.048   4.678  -1.513  0.00  0.00    +0.000 A 
ATOM      9  C   UNL     1       1.189   3.935  -0.981  0.00  0.00    +0.000 A 
ATOM     10  H   UNL     1       1.482   6.882   0.288  0.00  0.00    +0.000 HD
ENDROOT
BRANCH   1  14
ATOM     11  C   UNL     1       0.950   0.034  -0.080  0.00  0.00    +0.000 C 
ATOM     12  C   UNL     1       0.443   0.459  -1.448  0.00  0.00    +0.000 C 
ATOM     13  C   UNL     1      -0.431  -0.483  -2.261  0.00  0.00    +0.000 C 
ATOM     14  C   UNL     1       0.772   1.681  -1.946  0.00  0.00    +0.000 C 
ENDBRANCH   1  14
BRANCH   7  15
ATOM     15  O   UNL     1      -0.834   6.916  -1.325  0.00  0.00    +0.000 OA
ATOM     16  H   UNL     1      -1.607   6.734  -1.933  0.00  0.00    +0.000 HD
ENDBRANCH   7  15
BRANCH   8  17
ATOM     17  N   UNL     1      -0.979   4.152  -2.424  0.00  0.00    +0.000 NA
ATOM     18  N   UNL     1      -0.920   2.945  -2.818  0.00  0.00    +0.000 NA
BRANCH  18  19
ATOM     19  C   UNL     1      -1.947   2.418  -3.728  0.00  0.00    +0.000 A 
ATOM     20  C   UNL     1      -2.357   3.191  -4.851  0.00  0.00    +0.000 A 
ATOM     21  C   UNL     1      -3.557   2.871  -5.506  0.00  0.00    +0.000 A 
ATOM     22  C   UNL     1      -4.142   1.733  -5.273  0.00  0.00    +0.000 A 
ATOM     23  C   UNL     1      -3.571   0.820  -4.376  0.00  0.00    +0.000 A 
ATOM     24  C   UNL     1      -2.547   1.249  -3.498  0.00  0.00    +0.000 A 
BRANCH  22  25
ATOM     25  S   UNL     1      -5.696   1.328  -6.108  0.00  0.00    +0.000 S 
ATOM     26  O   UNL     1      -5.477   1.328  -7.622  0.00  0.00    +0.000 OA
ATOM     27  O   UNL     1      -6.170  -0.057  -5.661  0.00  0.00    +0.000 OA
BRANCH  25  28
ATOM     28  N   UNL     1      -6.916   2.527  -5.692  0.00  0.00    +0.000 NA
ATOM     29  H   UNL     1      -7.791   2.299  -6.162  0.00  0.00    +0.000 HD
ATOM     30  H   UNL     1      -7.062   2.527  -4.682  0.00  0.00    +0.000 HD
ENDBRANCH  25  28
ENDBRANCH  22  25
ENDBRANCH  18  19
ENDBRANCH   8  17
TORSDOF 6
