
 OpenBabel03132512093D

 40 42  0  0  0  0  0  0  0  0999 V2000
    1.0134    0.0123    0.0983 C   0  0  0  0  0  0  0  0  0  0  0  0
    0.5401    1.0961   -0.6876 O   0  0  0  0  0  0  0  0  0  0  0  0
    0.8831    2.4291   -0.3388 C   0  0  0  0  0  0  0  0  0  0  0  0
   -0.1343    3.3412   -0.2952 C   0  0  0  0  0  0  0  0  0  0  0  0
    0.1140    4.6626    0.1387 C   0  0  0  0  0  0  0  0  0  0  0  0
   -0.9188    5.5626    0.2087 N   0  0  0  0  0  0  0  0  0  0  0  0
   -0.6168    6.7650    0.6149 C   0  0  0  0  0  0  0  0  0  0  0  0
    0.6232    7.2273    0.9637 N   0  0  0  0  0  0  0  0  0  0  0  0
    1.6225    6.3818    0.8880 C   0  0  0  0  0  0  0  0  0  0  0  0
    2.9758    6.8434    1.2290 N   0  0  0  0  0  0  0  0  0  0  0  0
    3.1939    8.2356    1.6476 C   0  0  0  0  0  0  0  0  0  0  0  0
    2.5417    8.6943    2.7721 C   0  0  0  0  0  0  0  0  0  0  0  0
    2.8304    9.9514    3.2534 C   0  0  0  0  0  0  0  0  0  0  0  0
    3.7500   10.7863    2.6432 C   0  0  0  0  0  0  0  0  0  0  0  0
    4.0588   12.1615    3.1711 C   0  0  0  0  0  0  0  0  0  0  0  0
    4.3819   10.3287    1.4855 C   0  0  0  0  0  0  0  0  0  0  0  0
    5.2717   11.1678    0.8833 O   0  0  0  0  0  0  0  0  0  0  0  0
    4.1050    9.0506    0.9994 C   0  0  0  0  0  0  0  0  0  0  0  0
    1.4341    5.0291    0.4849 C   0  0  0  0  0  0  0  0  0  0  0  0
    2.4720    4.0720    0.4177 C   0  0  0  0  0  0  0  0  0  0  0  0
    2.1947    2.7954    0.0195 C   0  0  0  0  0  0  0  0  0  0  0  0
    3.2358    1.8312   -0.0336 O   0  0  0  0  0  0  0  0  0  0  0  0
    2.9526    0.5026   -0.4469 C   0  0  0  0  0  0  0  0  0  0  0  0
    0.6568   -0.9090   -0.3128 H   0  0  0  0  0  0  0  0  0  0  0  0
    0.6568    0.1168    1.1017 H   0  0  0  0  0  0  0  0  0  0  0  0
    2.0834    0.0123    0.0983 H   0  0  0  0  0  0  0  0  0  0  0  0
   -1.1217    3.0534   -0.5906 H   0  0  0  0  0  0  0  0  0  0  0  0
   -1.4242    7.4638    0.6825 H   0  0  0  0  0  0  0  0  0  0  0  0
    3.7636    6.1977    1.1751 H   0  0  0  0  0  0  0  0  0  0  0  0
    1.8184    8.0795    3.2659 H   0  0  0  0  0  0  0  0  0  0  0  0
    2.3252   10.2956    4.1316 H   0  0  0  0  0  0  0  0  0  0  0  0
    5.1019   12.2299    3.3997 H   0  0  0  0  0  0  0  0  0  0  0  0
    3.8072   12.8924    2.4312 H   0  0  0  0  0  0  0  0  0  0  0  0
    3.4869   12.3399    4.0577 H   0  0  0  0  0  0  0  0  0  0  0  0
    5.4399   12.0763    1.2659 H   0  0  0  0  0  0  0  0  0  0  0  0
    4.6008    8.6981    0.1191 H   0  0  0  0  0  0  0  0  0  0  0  0
    3.4727    4.3470    0.6782 H   0  0  0  0  0  0  0  0  0  0  0  0
    2.2322    0.0690    0.2149 H   0  0  0  0  0  0  0  0  0  0  0  0
    2.5605    0.5146   -1.4424 H   0  0  0  0  0  0  0  0  0  0  0  0
    3.8516   -0.0772   -0.4247 H   0  0  0  0  0  0  0  0  0  0  0  0
  1  2  1  0  0  0  0
  1 24  1  0  0  0  0
  1 25  1  0  0  0  0
  1 26  1  0  0  0  0
  2  3  1  0  0  0  0
  3  4  1  0  0  0  0
  3 21  2  0  0  0  0
  4  5  2  0  0  0  0
  4 27  1  0  0  0  0
  5  6  1  0  0  0  0
  5 19  1  0  0  0  0
  6  7  2  0  0  0  0
  7  8  1  0  0  0  0
  7 28  1  0  0  0  0
  8  9  2  0  0  0  0
  9 10  1  0  0  0  0
  9 19  1  0  0  0  0
 10 11  1  0  0  0  0
 10 29  1  0  0  0  0
 11 12  1  0  0  0  0
 11 18  2  0  0  0  0
 12 13  2  0  0  0  0
 12 30  1  0  0  0  0
 13 14  1  0  0  0  0
 13 31  1  0  0  0  0
 14 15  1  0  0  0  0
 14 16  2  0  0  0  0
 15 32  1  0  0  0  0
 15 33  1  0  0  0  0
 15 34  1  0  0  0  0
 16 17  1  0  0  0  0
 16 18  1  0  0  0  0
 17 35  1  0  0  0  0
 18 36  1  0  0  0  0
 19 20  2  0  0  0  0
 20 21  1  0  0  0  0
 20 37  1  0  0  0  0
 21 22  1  0  0  0  0
 22 23  1  0  0  0  0
 23 38  1  0  0  0  0
 23 39  1  0  0  0  0
 23 40  1  0  0  0  0
M  END
