
 OpenBabel03132514253D

 40 42  0  0  0  0  0  0  0  0999 V2000
    1.0427    0.0545   -0.0722 C   0  0  0  0  0  0  0  0  0  0  0  0
    0.5693    0.2428   -1.3977 O   0  0  0  0  0  0  0  0  0  0  0  0
    0.9124    1.4202   -2.1135 C   0  0  0  0  0  0  0  0  0  0  0  0
   -0.0645    1.9480   -2.9112 C   0  0  0  0  0  0  0  0  0  0  0  0
    0.2211    3.0473   -3.7515 C   0  0  0  0  0  0  0  0  0  0  0  0
   -0.7728    3.5900   -4.5254 N   0  0  0  0  0  0  0  0  0  0  0  0
   -0.4376    4.6009   -5.2789 C   0  0  0  0  0  0  0  0  0  0  0  0
    0.8035    5.1670   -5.3902 N   0  0  0  0  0  0  0  0  0  0  0  0
    1.7666    4.6493   -4.6667 C   0  0  0  0  0  0  0  0  0  0  0  0
    3.1211    5.2102   -4.7744 N   0  0  0  0  0  0  0  0  0  0  0  0
    3.3804    6.3357   -5.6838 C   0  0  0  0  0  0  0  0  0  0  0  0
    2.6849    7.5055   -5.4646 C   0  0  0  0  0  0  0  0  0  0  0  0
    2.8127    8.5437   -6.3597 C   0  0  0  0  0  0  0  0  0  0  0  0
    3.6103    8.4573   -7.4873 C   0  0  0  0  0  0  0  0  0  0  0  0
    3.7431    9.5939   -8.4649 C   0  0  0  0  0  0  0  0  0  0  0  0
    4.2852    7.2578   -7.7209 C   0  0  0  0  0  0  0  0  0  0  0  0
    5.0528    7.1788   -8.8447 O   0  0  0  0  0  0  0  0  0  0  0  0
    4.1719    6.2060   -6.8113 C   0  0  0  0  0  0  0  0  0  0  0  0
    1.5380    3.5591   -3.7796 C   0  0  0  0  0  0  0  0  0  0  0  0
    2.5343    2.9869   -2.9563 C   0  0  0  0  0  0  0  0  0  0  0  0
    2.2201    1.9418   -2.1353 C   0  0  0  0  0  0  0  0  0  0  0  0
    3.2186    1.3775   -1.2981 O   0  0  0  0  0  0  0  0  0  0  0  0
    2.8969    0.2907   -0.4427 C   0  0  0  0  0  0  0  0  0  0  0  0
    0.6860   -0.8814    0.3043 H   0  0  0  0  0  0  0  0  0  0  0  0
    0.6860    0.8485    0.5501 H   0  0  0  0  0  0  0  0  0  0  0  0
    2.1127    0.0545   -0.0722 H   0  0  0  0  0  0  0  0  0  0  0  0
   -1.0482    1.5272   -2.8991 H   0  0  0  0  0  0  0  0  0  0  0  0
   -1.2155    5.0333   -5.8729 H   0  0  0  0  0  0  0  0  0  0  0  0
    3.8811    4.8184   -4.2182 H   0  0  0  0  0  0  0  0  0  0  0  0
    2.0522    7.6057   -4.6076 H   0  0  0  0  0  0  0  0  0  0  0  0
    2.2754    9.4508   -6.1768 H   0  0  0  0  0  0  0  0  0  0  0  0
    4.7706    9.8835   -8.5378 H   0  0  0  0  0  0  0  0  0  0  0  0
    3.3917    9.2807   -9.4258 H   0  0  0  0  0  0  0  0  0  0  0  0
    3.1613   10.4256   -8.1261 H   0  0  0  0  0  0  0  0  0  0  0  0
    5.1054    7.9574   -9.4701 H   0  0  0  0  0  0  0  0  0  0  0  0
    4.7008    5.2925   -6.9869 H   0  0  0  0  0  0  0  0  0  0  0  0
    3.5325    3.3718   -2.9763 H   0  0  0  0  0  0  0  0  0  0  0  0
    2.1269    0.5884    0.2380 H   0  0  0  0  0  0  0  0  0  0  0  0
    2.5542   -0.5358   -1.0295 H   0  0  0  0  0  0  0  0  0  0  0  0
    3.7672    0.0006    0.1081 H   0  0  0  0  0  0  0  0  0  0  0  0
  1  2  1  0  0  0  0
  1 24  1  0  0  0  0
  1 25  1  0  0  0  0
  1 26  1  0  0  0  0
  2  3  1  0  0  0  0
  3  4  1  0  0  0  0
  3 21  2  0  0  0  0
  4  5  2  0  0  0  0
  4 27  1  0  0  0  0
  5  6  1  0  0  0  0
  5 19  1  0  0  0  0
  6  7  2  0  0  0  0
  7  8  1  0  0  0  0
  7 28  1  0  0  0  0
  8  9  2  0  0  0  0
  9 10  1  0  0  0  0
  9 19  1  0  0  0  0
 10 11  1  0  0  0  0
 10 29  1  0  0  0  0
 11 12  1  0  0  0  0
 11 18  2  0  0  0  0
 12 13  2  0  0  0  0
 12 30  1  0  0  0  0
 13 14  1  0  0  0  0
 13 31  1  0  0  0  0
 14 15  1  0  0  0  0
 14 16  2  0  0  0  0
 15 32  1  0  0  0  0
 15 33  1  0  0  0  0
 15 34  1  0  0  0  0
 16 17  1  0  0  0  0
 16 18  1  0  0  0  0
 17 35  1  0  0  0  0
 18 36  1  0  0  0  0
 19 20  2  0  0  0  0
 20 21  1  0  0  0  0
 20 37  1  0  0  0  0
 21 22  1  0  0  0  0
 22 23  1  0  0  0  0
 23 38  1  0  0  0  0
 23 39  1  0  0  0  0
 23 40  1  0  0  0  0
M  END
