REMARK  Name = 
REMARK  7 active torsions:
REMARK  status: ('A' for Active; 'I' for Inactive)
REMARK    1  A    between atoms: C_1  and  O_2
REMARK    2  A    between atoms: O_2  and  C_3
REMARK    3  A    between atoms: N_10  and  C_11
REMARK    4  A    between atoms: C_14  and  C_15
REMARK    5  A    between atoms: C_16  and  O_17
REMARK    6  A    between atoms: C_21  and  O_22
REMARK    7  A    between atoms: O_22  and  C_23
REMARK                            x       y       z     vdW  Elec       q    Type
REMARK                         _______ _______ _______ _____ _____    ______ ____
ROOT
ATOM      1  C   UNL     1       0.883   2.429  -0.339  0.00  0.00    +0.000 A 
ATOM      2  C   UNL     1      -0.134   3.341  -0.295  0.00  0.00    +0.000 A 
ATOM      3  C   UNL     1       0.114   4.663   0.139  0.00  0.00    +0.000 A 
ATOM      4  N   UNL     1      -0.919   5.563   0.209  0.00  0.00    +0.000 NA
ATOM      5  C   UNL     1      -0.617   6.765   0.615  0.00  0.00    +0.000 A 
ATOM      6  N   UNL     1       0.623   7.227   0.964  0.00  0.00    +0.000 NA
ATOM      7  C   UNL     1       1.623   6.382   0.888  0.00  0.00    +0.000 A 
ATOM      8  N   UNL     1       2.976   6.843   1.229  0.00  0.00    +0.000 N 
ATOM      9  C   UNL     1       1.434   5.029   0.485  0.00  0.00    +0.000 A 
ATOM     10  C   UNL     1       2.472   4.072   0.418  0.00  0.00    +0.000 A 
ATOM     11  C   UNL     1       2.195   2.795   0.019  0.00  0.00    +0.000 A 
ATOM     12  H   UNL     1       3.764   6.198   1.175  0.00  0.00    +0.000 HD
ENDROOT
BRANCH   8  13
ATOM     13  C   UNL     1       3.194   8.236   1.648  0.00  0.00    +0.000 A 
ATOM     14  C   UNL     1       2.542   8.694   2.772  0.00  0.00    +0.000 A 
ATOM     15  C   UNL     1       2.830   9.951   3.253  0.00  0.00    +0.000 A 
ATOM     16  C   UNL     1       3.750  10.786   2.643  0.00  0.00    +0.000 A 
ATOM     17  C   UNL     1       4.059  12.162   3.171  0.00  0.00    +0.000 C 
ATOM     18  C   UNL     1       4.382  10.329   1.486  0.00  0.00    +0.000 A 
ATOM     19  C   UNL     1       4.105   9.051   0.999  0.00  0.00    +0.000 A 
BRANCH  18  20
ATOM     20  O   UNL     1       5.272  11.168   0.883  0.00  0.00    +0.000 OA
ATOM     21  H   UNL     1       5.440  12.076   1.266  0.00  0.00    +0.000 HD
ENDBRANCH  18  20
ENDBRANCH   8  13
BRANCH   1  23
ATOM     22  C   UNL     1       1.013   0.012   0.098  0.00  0.00    +0.000 C 
ATOM     23  O   UNL     1       0.540   1.096  -0.688  0.00  0.00    +0.000 OA
ENDBRANCH   1  23
BRANCH  11  24
ATOM     24  O   UNL     1       3.236   1.831  -0.034  0.00  0.00    +0.000 OA
ATOM     25  C   UNL     1       2.953   0.503  -0.447  0.00  0.00    +0.000 C 
ENDBRANCH  11  24
TORSDOF 4
