REMARK  Name = 
REMARK  11 active torsions:
REMARK  status: ('A' for Active; 'I' for Inactive)
REMARK    1  A    between atoms: C_1  and  S_2
REMARK    2  A    between atoms: S_2  and  C_5
REMARK    3  A    between atoms: C_5  and  C_6
REMARK    4  A    between atoms: C_6  and  N_7
REMARK    5  A    between atoms: N_7  and  C_8
REMARK    6  A    between atoms: C_8  and  C_9
REMARK    7  A    between atoms: C_12  and  C_13
REMARK    8  A    between atoms: N_21  and  C_22
REMARK    9  A    between atoms: C_25  and  O_26
REMARK   10  A    between atoms: O_26  and  C_27
REMARK   11  A    between atoms: C_27  and  C_28
REMARK                            x       y       z     vdW  Elec       q    Type
REMARK                         _______ _______ _______ _____ _____    ______ ____
ROOT
ATOM      1  C   UNL     1      -4.231   5.082   1.855  0.00  0.00    +0.000 A 
ATOM      2  C   UNL     1      -5.176   5.010   2.897  0.00  0.00    +0.000 A 
ATOM      3  C   UNL     1      -6.283   5.811   2.894  0.00  0.00    +0.000 A 
ATOM      4  C   UNL     1      -6.481   6.746   1.853  0.00  0.00    +0.000 A 
ATOM      5  N   UNL     1      -7.579   7.568   1.874  0.00  0.00    +0.000 NA
ATOM      6  C   UNL     1      -7.699   8.405   0.880  0.00  0.00    +0.000 A 
ATOM      7  N   UNL     1      -6.854   8.539  -0.188  0.00  0.00    +0.000 NA
ATOM      8  C   UNL     1      -5.807   7.750  -0.228  0.00  0.00    +0.000 A 
ATOM      9  N   UNL     1      -4.887   7.843  -1.370  0.00  0.00    +0.000 N 
ATOM     10  C   UNL     1      -5.537   6.806   0.803  0.00  0.00    +0.000 A 
ATOM     11  C   UNL     1      -4.407   5.957   0.822  0.00  0.00    +0.000 A 
ATOM     12  H   UNL     1      -4.068   7.237  -1.416  0.00  0.00    +0.000 HD
ENDROOT
BRANCH   9  13
ATOM     13  C   UNL     1      -5.146   8.811  -2.446  0.00  0.00    +0.000 A 
ATOM     14  C   UNL     1      -5.441   8.260  -3.683  0.00  0.00    +0.000 A 
ATOM     15  C   UNL     1      -5.521   9.210  -4.729  0.00  0.00    +0.000 A 
ATOM     16  C   UNL     1      -5.671  10.510  -4.550  0.00  0.00    +0.000 A 
ATOM     17  C   UNL     1      -5.432  10.982  -3.290  0.00  0.00    +0.000 A 
ATOM     18  C   UNL     1      -5.215  10.121  -2.241  0.00  0.00    +0.000 A 
BRANCH  16  19
ATOM     19  O   UNL     1      -6.061  11.370  -5.610  0.00  0.00    +0.000 OA
BRANCH  19  20
ATOM     20  C   UNL     1      -6.212  12.763  -5.376  0.00  0.00    +0.000 C 
BRANCH  20  21
ATOM     21  C   UNL     1      -7.275  12.985  -4.312  0.00  0.00    +0.000 A 
ATOM     22  C   UNL     1      -7.614  14.279  -3.954  0.00  0.00    +0.000 A 
ATOM     23  C   UNL     1      -8.371  14.364  -2.762  0.00  0.00    +0.000 A 
ATOM     24  C   UNL     1      -9.021  13.353  -2.213  0.00  0.00    +0.000 A 
ATOM     25  C   UNL     1      -8.689  12.104  -2.659  0.00  0.00    +0.000 A 
ATOM     26  C   UNL     1      -7.851  11.937  -3.736  0.00  0.00    +0.000 A 
ENDBRANCH  20  21
ENDBRANCH  19  20
ENDBRANCH  16  19
ENDBRANCH   9  13
BRANCH   1  30
ATOM     27  C   UNL     1      -0.954   3.490   1.903  0.00  0.00    +0.000 A 
ATOM     28  C   UNL     1      -1.697   2.374   1.902  0.00  0.00    +0.000 A 
ATOM     29  C   UNL     1      -3.041   2.824   1.887  0.00  0.00    +0.000 A 
ATOM     30  C   UNL     1      -3.008   4.180   1.881  0.00  0.00    +0.000 A 
ATOM     31  O   UNL     1      -1.706   4.618   1.903  0.00  0.00    +0.000 OA
BRANCH  27  32
ATOM     32  C   UNL     1       0.567   3.490   1.903  0.00  0.00    +0.000 C 
BRANCH  32  33
ATOM     33  N   UNL     1       1.056   2.712   0.756  0.00  0.00    +0.000 NA
ATOM     34  H   UNL     1       0.717   1.753   0.825  0.00  0.00    +0.000 HD
BRANCH  33  35
ATOM     35  C   UNL     1       0.567   3.316  -0.492  0.00  0.00    +0.000 C 
BRANCH  35  36
ATOM     36  C   UNL     1       1.073   2.512  -1.678  0.00  0.00    +0.000 C 
BRANCH  36  38
ATOM     37  C   UNL     1       1.073   0.066  -0.018  0.00  0.00    +0.000 C 
ATOM     38  S   UNL     1       0.470   0.810  -1.554  0.00  0.00    +0.000 S 
ATOM     39  O   UNL     1       0.980  -0.000  -2.748  0.00  0.00    +0.000 OA
ATOM     40  O   UNL     1      -1.061   0.810  -1.554  0.00  0.00    +0.000 OA
ENDBRANCH  36  38
ENDBRANCH  35  36
ENDBRANCH  33  35
ENDBRANCH  32  33
ENDBRANCH  27  32
ENDBRANCH   1  30
TORSDOF 10
