
 OpenBabel03132512093D

 66 70  0  0  0  0  0  0  0  0999 V2000
    1.0732    0.0656   -0.0185 C   0  0  0  0  0  0  0  0  0  0  0  0
    0.4698    0.8098   -1.5542 S   0  0  0  0  0  0  0  0  0  0  0  0
    0.9800   -0.0002   -2.7483 O   0  0  0  0  0  0  0  0  0  0  0  0
   -1.0606    0.8098   -1.5542 O   0  0  0  0  0  0  0  0  0  0  0  0
    1.0731    2.5118   -1.6776 C   0  0  0  0  0  0  0  0  0  0  0  0
    0.5665    3.3162   -0.4916 C   0  0  0  0  0  0  0  0  0  0  0  0
    1.0565    2.7118    0.7556 N   0  0  0  0  0  0  0  0  0  0  0  0
    0.5665    3.4898    1.9026 C   0  0  0  0  0  0  0  0  0  0  0  0
   -0.9535    3.4898    1.9026 C   0  0  0  0  0  0  0  0  0  0  0  0
   -1.6972    2.3745    1.9022 C   0  0  0  0  0  0  0  0  0  0  0  0
   -3.0407    2.8239    1.8866 C   0  0  0  0  0  0  0  0  0  0  0  0
   -3.0080    4.1801    1.8814 C   0  0  0  0  0  0  0  0  0  0  0  0
   -4.2312    5.0820    1.8553 C   0  0  0  0  0  0  0  0  0  0  0  0
   -5.1759    5.0097    2.8970 C   0  0  0  0  0  0  0  0  0  0  0  0
   -6.2834    5.8111    2.8936 C   0  0  0  0  0  0  0  0  0  0  0  0
   -6.4807    6.7463    1.8531 C   0  0  0  0  0  0  0  0  0  0  0  0
   -7.5790    7.5678    1.8740 N   0  0  0  0  0  0  0  0  0  0  0  0
   -7.6990    8.4047    0.8804 C   0  0  0  0  0  0  0  0  0  0  0  0
   -6.8538    8.5391   -0.1876 N   0  0  0  0  0  0  0  0  0  0  0  0
   -5.8071    7.7503   -0.2280 C   0  0  0  0  0  0  0  0  0  0  0  0
   -4.8866    7.8434   -1.3703 N   0  0  0  0  0  0  0  0  0  0  0  0
   -5.1459    8.8107   -2.4463 C   0  0  0  0  0  0  0  0  0  0  0  0
   -5.4406    8.2603   -3.6828 C   0  0  0  0  0  0  0  0  0  0  0  0
   -5.5207    9.2099   -4.7286 C   0  0  0  0  0  0  0  0  0  0  0  0
   -5.6712   10.5097   -4.5502 C   0  0  0  0  0  0  0  0  0  0  0  0
   -6.0611   11.3702   -5.6103 O   0  0  0  0  0  0  0  0  0  0  0  0
   -6.2116   12.7626   -5.3757 C   0  0  0  0  0  0  0  0  0  0  0  0
   -7.2746   12.9852   -4.3123 C   0  0  0  0  0  0  0  0  0  0  0  0
   -7.6136   14.2794   -3.9535 C   0  0  0  0  0  0  0  0  0  0  0  0
   -8.3715   14.3640   -2.7616 C   0  0  0  0  0  0  0  0  0  0  0  0
   -9.0207   13.3530   -2.2135 C   0  0  0  0  0  0  0  0  0  0  0  0
   -8.6889   12.1038   -2.6595 C   0  0  0  0  0  0  0  0  0  0  0  0
   -7.8514   11.9371   -3.7360 C   0  0  0  0  0  0  0  0  0  0  0  0
   -5.4316   10.9822   -3.2898 C   0  0  0  0  0  0  0  0  0  0  0  0
   -5.2152   10.1208   -2.2414 C   0  0  0  0  0  0  0  0  0  0  0  0
   -5.5368    6.8063    0.8032 C   0  0  0  0  0  0  0  0  0  0  0  0
   -4.4071    5.9569    0.8216 C   0  0  0  0  0  0  0  0  0  0  0  0
   -1.7058    4.6181    1.9031 O   0  0  0  0  0  0  0  0  0  0  0  0
    0.7165   -0.9405    0.0545 H   0  0  0  0  0  0  0  0  0  0  0  0
    0.7165    0.6319    0.8164 H   0  0  0  0  0  0  0  0  0  0  0  0
    2.1432    0.0656   -0.0185 H   0  0  0  0  0  0  0  0  0  0  0  0
    2.1431    2.5118   -1.6776 H   0  0  0  0  0  0  0  0  0  0  0  0
    0.7165    2.9517   -2.5854 H   0  0  0  0  0  0  0  0  0  0  0  0
    0.9232    4.3224   -0.5645 H   0  0  0  0  0  0  0  0  0  0  0  0
   -0.5035    3.3162   -0.4916 H   0  0  0  0  0  0  0  0  0  0  0  0
    0.7165    1.7527    0.8252 H   0  0  0  0  0  0  0  0  0  0  0  0
    0.9232    3.0499    2.8105 H   0  0  0  0  0  0  0  0  0  0  0  0
    0.9232    4.4959    1.8297 H   0  0  0  0  0  0  0  0  0  0  0  0
   -1.3506    1.3622    1.9116 H   0  0  0  0  0  0  0  0  0  0  0  0
   -3.9165    2.2092    1.8802 H   0  0  0  0  0  0  0  0  0  0  0  0
   -5.0251    4.3195    3.7007 H   0  0  0  0  0  0  0  0  0  0  0  0
   -7.0031    5.7299    3.6813 H   0  0  0  0  0  0  0  0  0  0  0  0
   -8.5484    9.0550    0.9029 H   0  0  0  0  0  0  0  0  0  0  0  0
   -4.0679    7.2367   -1.4162 H   0  0  0  0  0  0  0  0  0  0  0  0
   -5.5938    7.2120   -3.8333 H   0  0  0  0  0  0  0  0  0  0  0  0
   -5.4546    8.8498   -5.7341 H   0  0  0  0  0  0  0  0  0  0  0  0
   -5.2809   13.1705   -5.0406 H   0  0  0  0  0  0  0  0  0  0  0  0
   -6.5075   13.2472   -6.2827 H   0  0  0  0  0  0  0  0  0  0  0  0
   -7.3281   15.1373   -4.5256 H   0  0  0  0  0  0  0  0  0  0  0  0
   -8.4221   15.3131   -2.2702 H   0  0  0  0  0  0  0  0  0  0  0  0
   -9.7662   13.5033   -1.4609 H   0  0  0  0  0  0  0  0  0  0  0  0
   -9.0871   11.2436   -2.1631 H   0  0  0  0  0  0  0  0  0  0  0  0
   -7.6623   10.9539   -4.1133 H   0  0  0  0  0  0  0  0  0  0  0  0
   -5.4122   12.0381   -3.1173 H   0  0  0  0  0  0  0  0  0  0  0  0
   -5.1014   10.5092   -1.2509 H   0  0  0  0  0  0  0  0  0  0  0  0
   -3.6913    5.9994    0.0274 H   0  0  0  0  0  0  0  0  0  0  0  0
  1  2  1  0  0  0  0
  1 39  1  0  0  0  0
  1 40  1  0  0  0  0
  1 41  1  0  0  0  0
  2  3  2  0  0  0  0
  2  4  2  0  0  0  0
  2  5  1  0  0  0  0
  5  6  1  0  0  0  0
  5 42  1  0  0  0  0
  5 43  1  0  0  0  0
  6  7  1  0  0  0  0
  6 44  1  0  0  0  0
  6 45  1  0  0  0  0
  7  8  1  0  0  0  0
  7 46  1  0  0  0  0
  8  9  1  0  0  0  0
  8 47  1  0  0  0  0
  8 48  1  0  0  0  0
  9 10  2  0  0  0  0
  9 38  1  0  0  0  0
 10 11  1  0  0  0  0
 10 49  1  0  0  0  0
 11 12  2  0  0  0  0
 11 50  1  0  0  0  0
 12 13  1  0  0  0  0
 12 38  1  0  0  0  0
 13 14  1  0  0  0  0
 13 37  2  0  0  0  0
 14 15  2  0  0  0  0
 14 51  1  0  0  0  0
 15 16  1  0  0  0  0
 15 52  1  0  0  0  0
 16 17  1  0  0  0  0
 16 36  2  0  0  0  0
 17 18  2  0  0  0  0
 18 19  1  0  0  0  0
 18 53  1  0  0  0  0
 19 20  2  0  0  0  0
 20 21  1  0  0  0  0
 20 36  1  0  0  0  0
 21 22  1  0  0  0  0
 21 54  1  0  0  0  0
 22 23  1  0  0  0  0
 22 35  2  0  0  0  0
 23 24  2  0  0  0  0
 23 55  1  0  0  0  0
 24 25  1  0  0  0  0
 24 56  1  0  0  0  0
 25 26  1  0  0  0  0
 25 34  2  0  0  0  0
 26 27  1  0  0  0  0
 27 28  1  0  0  0  0
 27 57  1  0  0  0  0
 27 58  1  0  0  0  0
 28 29  1  0  0  0  0
 28 33  2  0  0  0  0
 29 30  2  0  0  0  0
 29 59  1  0  0  0  0
 30 31  1  0  0  0  0
 30 60  1  0  0  0  0
 31 32  2  0  0  0  0
 31 61  1  0  0  0  0
 32 33  1  0  0  0  0
 32 62  1  0  0  0  0
 33 63  1  0  0  0  0
 34 35  1  0  0  0  0
 34 64  1  0  0  0  0
 35 65  1  0  0  0  0
 36 37  1  0  0  0  0
 37 66  1  0  0  0  0
M  END
