REMARK  Name = 
REMARK  8 active torsions:
REMARK  status: ('A' for Active; 'I' for Inactive)
REMARK    1  A    between atoms: C_1  and  S_2
REMARK    2  A    between atoms: S_2  and  C_5
REMARK    3  A    between atoms: C_5  and  C_6
REMARK    4  A    between atoms: C_6  and  N_7
REMARK    5  A    between atoms: N_7  and  C_8
REMARK    6  A    between atoms: C_8  and  C_9
REMARK    7  A    between atoms: C_11  and  C_12
REMARK    8  A    between atoms: N_20  and  C_21
REMARK                            x       y       z     vdW  Elec       q    Type
REMARK                         _______ _______ _______ _____ _____    ______ ____
ROOT
ATOM      1  C   UNL     1      -4.138  -1.914  -0.838  0.00  0.00    +0.000 A 
ATOM      2  C   UNL     1      -4.154  -0.994  -1.905  0.00  0.00    +0.000 A 
ATOM      3  C   UNL     1      -5.084   0.007  -1.951  0.00  0.00    +0.000 A 
ATOM      4  C   UNL     1      -6.063   0.114  -0.938  0.00  0.00    +0.000 A 
ATOM      5  N   UNL     1      -7.011   1.103  -1.009  0.00  0.00    +0.000 NA
ATOM      6  C   UNL     1      -7.883   1.145  -0.039  0.00  0.00    +0.000 A 
ATOM      7  N   UNL     1      -7.941   0.317   1.049  0.00  0.00    +0.000 NA
ATOM      8  C   UNL     1      -7.032  -0.624   1.137  0.00  0.00    +0.000 A 
ATOM      9  N   UNL     1      -7.042  -1.520   2.303  0.00  0.00    +0.000 N 
ATOM     10  C   UNL     1      -6.035  -0.803   0.136  0.00  0.00    +0.000 A 
ATOM     11  C   UNL     1      -5.055  -1.820   0.170  0.00  0.00    +0.000 A 
ATOM     12  H   UNL     1      -6.342  -2.257   2.386  0.00  0.00    +0.000 HD
ENDROOT
BRANCH   9  13
ATOM     13  C   UNL     1      -8.062  -1.354   3.349  0.00  0.00    +0.000 A 
ATOM     14  C   UNL     1      -9.411  -1.466   3.040  0.00  0.00    +0.000 A 
ATOM     15  C   UNL     1     -10.381  -1.305   4.008  0.00  0.00    +0.000 A 
ATOM     16  C   UNL     1      -9.992  -1.032   5.295  0.00  0.00    +0.000 A 
ATOM     17  F   UNL     1     -10.934  -0.850   6.243  0.00  0.00    +0.000 F 
ATOM     18  C   UNL     1      -8.663  -0.910   5.631  0.00  0.00    +0.000 A 
ATOM     19 CL   UNL     1      -8.214  -0.518   7.256  0.00  0.00    +0.000 Cl
ATOM     20  C   UNL     1      -7.690  -1.072   4.662  0.00  0.00    +0.000 A 
ENDBRANCH   9  13
BRANCH   1  23
ATOM     21  C   UNL     1      -1.027  -3.867  -0.787  0.00  0.00    +0.000 A 
ATOM     22  N   UNL     1      -1.731  -2.772  -0.784  0.00  0.00    +0.000 NA
ATOM     23  C   UNL     1      -3.093  -3.018  -0.809  0.00  0.00    +0.000 A 
ATOM     24  C   UNL     1      -3.410  -4.351  -0.805  0.00  0.00    +0.000 A 
ATOM     25  S   UNL     1      -1.962  -5.323  -0.791  0.00  0.00    +0.000 S 
BRANCH  21  26
ATOM     26  C   UNL     1       0.493  -3.867  -0.787  0.00  0.00    +0.000 C 
BRANCH  26  27
ATOM     27  N   UNL     1       0.983  -2.755   0.040  0.00  0.00    +0.000 NA
ATOM     28  H   UNL     1       0.643  -1.872  -0.341  0.00  0.00    +0.000 HD
BRANCH  27  29
ATOM     29  C   UNL     1       0.493  -2.915   1.417  0.00  0.00    +0.000 C 
BRANCH  29  30
ATOM     30  C   UNL     1       0.999  -1.765   2.272  0.00  0.00    +0.000 C 
BRANCH  30  32
ATOM     31  C   UNL     1       0.999  -0.001  -0.100  0.00  0.00    +0.000 C 
ATOM     32  S   UNL     1       0.396  -0.198   1.595  0.00  0.00    +0.000 S 
ATOM     33  O   UNL     1       0.906   0.960   2.456  0.00  0.00    +0.000 OA
ATOM     34  O   UNL     1      -1.135  -0.198   1.595  0.00  0.00    +0.000 OA
ENDBRANCH  30  32
ENDBRANCH  29  30
ENDBRANCH  27  29
ENDBRANCH  26  27
ENDBRANCH  21  26
ENDBRANCH   1  23
TORSDOF 7
