REMARK  Name = 
REMARK  8 active torsions:
REMARK  status: ('A' for Active; 'I' for Inactive)
REMARK    1  A    between atoms: C_1  and  S_2
REMARK    2  A    between atoms: S_2  and  C_5
REMARK    3  A    between atoms: C_5  and  C_6
REMARK    4  A    between atoms: C_6  and  N_7
REMARK    5  A    between atoms: N_7  and  C_8
REMARK    6  A    between atoms: C_8  and  C_9
REMARK    7  A    between atoms: C_11  and  C_12
REMARK    8  A    between atoms: N_20  and  C_21
REMARK                            x       y       z     vdW  Elec       q    Type
REMARK                         _______ _______ _______ _____ _____    ______ ____
ROOT
ATOM      1  C   UNL     1      -4.156   1.343   3.896  0.00  0.00    +0.000 A 
ATOM      2  C   UNL     1      -4.172   2.264   2.830  0.00  0.00    +0.000 A 
ATOM      3  C   UNL     1      -5.102   3.265   2.785  0.00  0.00    +0.000 A 
ATOM      4  C   UNL     1      -6.082   3.371   3.798  0.00  0.00    +0.000 A 
ATOM      5  N   UNL     1      -7.030   4.360   3.728  0.00  0.00    +0.000 NA
ATOM      6  C   UNL     1      -7.901   4.401   4.698  0.00  0.00    +0.000 A 
ATOM      7  N   UNL     1      -7.959   3.572   5.785  0.00  0.00    +0.000 NA
ATOM      8  C   UNL     1      -7.050   2.631   5.873  0.00  0.00    +0.000 A 
ATOM      9  N   UNL     1      -7.061   1.734   7.037  0.00  0.00    +0.000 N 
ATOM     10  C   UNL     1      -6.054   2.453   4.872  0.00  0.00    +0.000 A 
ATOM     11  C   UNL     1      -5.073   1.436   4.904  0.00  0.00    +0.000 A 
ATOM     12  H   UNL     1      -6.360   0.998   7.120  0.00  0.00    +0.000 HD
ENDROOT
BRANCH   9  13
ATOM     13  C   UNL     1      -8.080   1.900   8.083  0.00  0.00    +0.000 A 
ATOM     14  C   UNL     1      -9.430   1.787   7.774  0.00  0.00    +0.000 A 
ATOM     15  C   UNL     1     -10.399   1.948   8.743  0.00  0.00    +0.000 A 
ATOM     16  C   UNL     1     -10.010   2.220  10.030  0.00  0.00    +0.000 A 
ATOM     17  F   UNL     1     -10.952   2.400  10.978  0.00  0.00    +0.000 F 
ATOM     18  C   UNL     1      -8.681   2.341  10.366  0.00  0.00    +0.000 A 
ATOM     19 CL   UNL     1      -8.233   2.731  11.991  0.00  0.00    +0.000 Cl
ATOM     20  C   UNL     1      -7.709   2.180   9.397  0.00  0.00    +0.000 A 
ENDBRANCH   9  13
BRANCH   1  23
ATOM     21  C   UNL     1      -1.046  -0.610   3.946  0.00  0.00    +0.000 A 
ATOM     22  N   UNL     1      -1.749   0.485   3.950  0.00  0.00    +0.000 NA
ATOM     23  C   UNL     1      -3.112   0.239   3.924  0.00  0.00    +0.000 A 
ATOM     24  C   UNL     1      -3.429  -1.094   3.928  0.00  0.00    +0.000 A 
ATOM     25  S   UNL     1      -1.980  -2.066   3.940  0.00  0.00    +0.000 S 
BRANCH  21  26
ATOM     26  C   UNL     1       0.474  -0.610   3.946  0.00  0.00    +0.000 C 
BRANCH  26  27
ATOM     27  N   UNL     1       0.964   0.171   2.801  0.00  0.00    +0.000 NA
ATOM     28  H   UNL     1       0.624  -0.246   1.934  0.00  0.00    +0.000 HD
BRANCH  27  29
ATOM     29  C   UNL     1       0.474   1.553   2.905  0.00  0.00    +0.000 C 
BRANCH  29  30
ATOM     30  C   UNL     1       0.981   2.361   1.721  0.00  0.00    +0.000 C 
BRANCH  30  32
ATOM     31  C   UNL     1       0.981  -0.081   0.055  0.00  0.00    +0.000 C 
ATOM     32  S   UNL     1       0.378   1.621   0.183  0.00  0.00    +0.000 S 
ATOM     33  O   UNL     1       0.888   2.433  -1.009  0.00  0.00    +0.000 OA
ATOM     34  O   UNL     1      -1.153   1.621   0.183  0.00  0.00    +0.000 OA
ENDBRANCH  30  32
ENDBRANCH  29  30
ENDBRANCH  27  29
ENDBRANCH  26  27
ENDBRANCH  21  26
ENDBRANCH   1  23
TORSDOF 7
