
 OpenBabel03132514253D

 66 70  0  0  0  0  0  0  0  0999 V2000
    0.9462   -0.0571    0.0620 C   0  0  0  0  0  0  0  0  0  0  0  0
    0.3428   -0.0220    1.7681 S   0  0  0  0  0  0  0  0  0  0  0  0
    0.8530    1.2421    2.4637 O   0  0  0  0  0  0  0  0  0  0  0  0
   -1.1876   -0.0220    1.7681 O   0  0  0  0  0  0  0  0  0  0  0  0
    0.9462   -1.4821    2.6515 C   0  0  0  0  0  0  0  0  0  0  0  0
    0.4395   -2.7376    1.9606 C   0  0  0  0  0  0  0  0  0  0  0  0
    0.9295   -2.7661    0.5750 N   0  0  0  0  0  0  0  0  0  0  0  0
    0.4395   -3.9803   -0.0931 C   0  0  0  0  0  0  0  0  0  0  0  0
   -1.0805   -3.9803   -0.0932 C   0  0  0  0  0  0  0  0  0  0  0  0
   -1.9221   -2.8406   -0.0906 C   0  0  0  0  0  0  0  0  0  0  0  0
   -3.1715   -3.3263   -0.0942 C   0  0  0  0  0  0  0  0  0  0  0  0
   -3.2039   -4.6820   -0.0845 O   0  0  0  0  0  0  0  0  0  0  0  0
   -1.8863   -5.0716   -0.0956 C   0  0  0  0  0  0  0  0  0  0  0  0
   -1.4030   -6.5127   -0.1088 C   0  0  0  0  0  0  0  0  0  0  0  0
   -0.5945   -6.9885    0.9413 C   0  0  0  0  0  0  0  0  0  0  0  0
   -0.1488   -8.2809    0.9503 C   0  0  0  0  0  0  0  0  0  0  0  0
   -0.5188   -9.1674   -0.0857 C   0  0  0  0  0  0  0  0  0  0  0  0
   -0.0923  -10.4707   -0.0524 N   0  0  0  0  0  0  0  0  0  0  0  0
   -0.4693  -11.2321   -1.0425 C   0  0  0  0  0  0  0  0  0  0  0  0
   -1.2319  -10.8644   -2.1178 N   0  0  0  0  0  0  0  0  0  0  0  0
   -1.6349   -9.6178   -2.1700 C   0  0  0  0  0  0  0  0  0  0  0  0
   -2.4350   -9.1735   -3.3204 N   0  0  0  0  0  0  0  0  0  0  0  0
   -2.7725  -10.1223   -4.3912 C   0  0  0  0  0  0  0  0  0  0  0  0
   -2.2765  -10.0130   -5.6799 C   0  0  0  0  0  0  0  0  0  0  0  0
   -2.8254  -10.9501   -6.5868 C   0  0  0  0  0  0  0  0  0  0  0  0
   -3.4584  -12.0535   -6.2321 C   0  0  0  0  0  0  0  0  0  0  0  0
   -3.7056  -13.1039   -7.1551 O   0  0  0  0  0  0  0  0  0  0  0  0
   -4.3900  -14.2741   -6.7324 C   0  0  0  0  0  0  0  0  0  0  0  0
   -3.6064  -14.9437   -5.6153 C   0  0  0  0  0  0  0  0  0  0  0  0
   -3.6352  -16.3268   -5.5466 C   0  0  0  0  0  0  0  0  0  0  0  0
   -3.2502  -16.8465   -4.2882 C   0  0  0  0  0  0  0  0  0  0  0  0
   -2.5828  -16.1701   -3.3710 C   0  0  0  0  0  0  0  0  0  0  0  0
   -2.5331  -14.8133   -3.5322 C   0  0  0  0  0  0  0  0  0  0  0  0
   -3.0076  -14.2198   -4.6770 C   0  0  0  0  0  0  0  0  0  0  0  0
   -3.8629  -12.1301   -4.9283 C   0  0  0  0  0  0  0  0  0  0  0  0
   -3.4758  -11.1827   -4.0115 C   0  0  0  0  0  0  0  0  0  0  0  0
   -1.3195   -8.6820   -1.1440 C   0  0  0  0  0  0  0  0  0  0  0  0
   -1.7559   -7.3376   -1.1384 C   0  0  0  0  0  0  0  0  0  0  0  0
    0.5895    0.8060   -0.4603 H   0  0  0  0  0  0  0  0  0  0  0  0
    0.5895   -0.9409   -0.4244 H   0  0  0  0  0  0  0  0  0  0  0  0
    2.0162   -0.0571    0.0620 H   0  0  0  0  0  0  0  0  0  0  0  0
    2.0162   -1.4821    2.6515 H   0  0  0  0  0  0  0  0  0  0  0  0
    0.5895   -1.4613    3.6601 H   0  0  0  0  0  0  0  0  0  0  0  0
    0.7962   -3.6007    2.4829 H   0  0  0  0  0  0  0  0  0  0  0  0
   -0.6305   -2.7376    1.9606 H   0  0  0  0  0  0  0  0  0  0  0  0
    0.5895   -1.9433    0.0772 H   0  0  0  0  0  0  0  0  0  0  0  0
    0.7962   -4.0010   -1.1017 H   0  0  0  0  0  0  0  0  0  0  0  0
    0.7962   -4.8434    0.4291 H   0  0  0  0  0  0  0  0  0  0  0  0
   -1.6243   -1.8128   -0.0865 H   0  0  0  0  0  0  0  0  0  0  0  0
   -4.0473   -2.7117   -0.1037 H   0  0  0  0  0  0  0  0  0  0  0  0
   -0.3260   -6.3309    1.7415 H   0  0  0  0  0  0  0  0  0  0  0  0
    0.4822   -8.6220    1.7442 H   0  0  0  0  0  0  0  0  0  0  0  0
   -0.1481  -12.2522   -1.0104 H   0  0  0  0  0  0  0  0  0  0  0  0
   -2.7559   -8.2069   -3.3755 H   0  0  0  0  0  0  0  0  0  0  0  0
   -1.5446   -9.2858   -5.9637 H   0  0  0  0  0  0  0  0  0  0  0  0
   -2.7202  -10.7509   -7.6329 H   0  0  0  0  0  0  0  0  0  0  0  0
   -5.3634  -14.0088   -6.3759 H   0  0  0  0  0  0  0  0  0  0  0  0
   -4.4840  -14.9497   -7.5568 H   0  0  0  0  0  0  0  0  0  0  0  0
   -3.9227  -16.9462   -6.3705 H   0  0  0  0  0  0  0  0  0  0  0  0
   -3.5183  -17.8578   -4.0640 H   0  0  0  0  0  0  0  0  0  0  0  0
   -2.1065  -16.6577   -2.5462 H   0  0  0  0  0  0  0  0  0  0  0  0
   -2.1188  -14.2048   -2.7556 H   0  0  0  0  0  0  0  0  0  0  0  0
   -2.8935  -13.1647   -4.8136 H   0  0  0  0  0  0  0  0  0  0  0  0
   -4.4900  -12.9395   -4.6174 H   0  0  0  0  0  0  0  0  0  0  0  0
   -3.7435  -11.3005   -2.9822 H   0  0  0  0  0  0  0  0  0  0  0  0
   -2.3614   -6.9670   -1.9390 H   0  0  0  0  0  0  0  0  0  0  0  0
  1  2  1  0  0  0  0
  1 39  1  0  0  0  0
  1 40  1  0  0  0  0
  1 41  1  0  0  0  0
  2  3  2  0  0  0  0
  2  4  2  0  0  0  0
  2  5  1  0  0  0  0
  5  6  1  0  0  0  0
  5 42  1  0  0  0  0
  5 43  1  0  0  0  0
  6  7  1  0  0  0  0
  6 44  1  0  0  0  0
  6 45  1  0  0  0  0
  7  8  1  0  0  0  0
  7 46  1  0  0  0  0
  8  9  1  0  0  0  0
  8 47  1  0  0  0  0
  8 48  1  0  0  0  0
  9 10  1  0  0  0  0
  9 13  2  0  0  0  0
 10 11  2  0  0  0  0
 10 49  1  0  0  0  0
 11 12  1  0  0  0  0
 11 50  1  0  0  0  0
 12 13  1  0  0  0  0
 13 14  1  0  0  0  0
 14 15  1  0  0  0  0
 14 38  2  0  0  0  0
 15 16  2  0  0  0  0
 15 51  1  0  0  0  0
 16 17  1  0  0  0  0
 16 52  1  0  0  0  0
 17 18  1  0  0  0  0
 17 37  2  0  0  0  0
 18 19  2  0  0  0  0
 19 20  1  0  0  0  0
 19 53  1  0  0  0  0
 20 21  2  0  0  0  0
 21 22  1  0  0  0  0
 21 37  1  0  0  0  0
 22 23  1  0  0  0  0
 22 54  1  0  0  0  0
 23 24  1  0  0  0  0
 23 36  2  0  0  0  0
 24 25  2  0  0  0  0
 24 55  1  0  0  0  0
 25 26  1  0  0  0  0
 25 56  1  0  0  0  0
 26 27  1  0  0  0  0
 26 35  2  0  0  0  0
 27 28  1  0  0  0  0
 28 29  1  0  0  0  0
 28 57  1  0  0  0  0
 28 58  1  0  0  0  0
 29 30  1  0  0  0  0
 29 34  2  0  0  0  0
 30 31  2  0  0  0  0
 30 59  1  0  0  0  0
 31 32  1  0  0  0  0
 31 60  1  0  0  0  0
 32 33  2  0  0  0  0
 32 61  1  0  0  0  0
 33 34  1  0  0  0  0
 33 62  1  0  0  0  0
 34 63  1  0  0  0  0
 35 36  1  0  0  0  0
 35 64  1  0  0  0  0
 36 65  1  0  0  0  0
 37 38  1  0  0  0  0
 38 66  1  0  0  0  0
M  END
