REMARK  Name = 
REMARK  12 active torsions:
REMARK  status: ('A' for Active; 'I' for Inactive)
REMARK    1  A    between atoms: C_1  and  S_2
REMARK    2  A    between atoms: S_2  and  C_5
REMARK    3  A    between atoms: C_5  and  C_6
REMARK    4  A    between atoms: C_6  and  N_7
REMARK    5  A    between atoms: N_7  and  C_8
REMARK    6  A    between atoms: C_8  and  C_9
REMARK    7  A    between atoms: C_12  and  C_13
REMARK    8  A    between atoms: N_21  and  C_22
REMARK    9  A    between atoms: C_25  and  O_26
REMARK   10  A    between atoms: O_26  and  C_27
REMARK   11  A    between atoms: C_27  and  C_28
REMARK   12  A    between atoms: C_32  and  C_33
REMARK                            x       y       z     vdW  Elec       q    Type
REMARK                         _______ _______ _______ _____ _____    ______ ____
ROOT
ATOM      1  C   UNL     1      -4.360   0.727   3.744  0.00  0.00    +0.000 A 
ATOM      2  C   UNL     1      -5.305   0.653   4.786  0.00  0.00    +0.000 A 
ATOM      3  C   UNL     1      -6.412   1.455   4.783  0.00  0.00    +0.000 A 
ATOM      4  C   UNL     1      -6.609   2.391   3.744  0.00  0.00    +0.000 A 
ATOM      5  N   UNL     1      -7.707   3.213   3.765  0.00  0.00    +0.000 NA
ATOM      6  C   UNL     1      -7.827   4.051   2.773  0.00  0.00    +0.000 A 
ATOM      7  N   UNL     1      -6.982   4.186   1.705  0.00  0.00    +0.000 NA
ATOM      8  C   UNL     1      -5.936   3.397   1.664  0.00  0.00    +0.000 A 
ATOM      9  N   UNL     1      -5.015   3.491   0.521  0.00  0.00    +0.000 N 
ATOM     10  C   UNL     1      -5.665   2.452   2.694  0.00  0.00    +0.000 A 
ATOM     11  C   UNL     1      -4.536   1.603   2.711  0.00  0.00    +0.000 A 
ATOM     12  H   UNL     1      -4.197   2.885   0.475  0.00  0.00    +0.000 HD
ENDROOT
BRANCH   9  13
ATOM     13  C   UNL     1      -5.274   4.460  -0.554  0.00  0.00    +0.000 A 
ATOM     14  C   UNL     1      -5.569   3.911  -1.791  0.00  0.00    +0.000 A 
ATOM     15  C   UNL     1      -5.649   4.862  -2.836  0.00  0.00    +0.000 A 
ATOM     16  C   UNL     1      -5.799   6.161  -2.656  0.00  0.00    +0.000 A 
ATOM     17  C   UNL     1      -5.560   6.632  -1.395  0.00  0.00    +0.000 A 
ATOM     18  C   UNL     1      -5.343   5.770  -0.347  0.00  0.00    +0.000 A 
BRANCH  16  19
ATOM     19  O   UNL     1      -6.189   7.023  -3.715  0.00  0.00    +0.000 OA
BRANCH  19  20
ATOM     20  C   UNL     1      -6.339   8.415  -3.479  0.00  0.00    +0.000 C 
BRANCH  20  21
ATOM     21  C   UNL     1      -7.402   8.637  -2.416  0.00  0.00    +0.000 A 
ATOM     22  C   UNL     1      -7.742   9.931  -2.056  0.00  0.00    +0.000 A 
ATOM     23  C   UNL     1      -8.500  10.014  -0.864  0.00  0.00    +0.000 A 
ATOM     24  C   UNL     1      -9.149   9.003  -0.317  0.00  0.00    +0.000 A 
ATOM     25  C   UNL     1      -8.816   7.754  -0.763  0.00  0.00    +0.000 A 
ATOM     26  C   UNL     1      -7.979   7.588  -1.840  0.00  0.00    +0.000 A 
BRANCH  25  27
ATOM     27  C   UNL     1      -9.381   6.532  -0.058  0.00  0.00    +0.000 C 
ATOM     28  F   UNL     1      -8.997   6.537   1.215  0.00  0.00    +0.000 F 
ATOM     29  F   UNL     1     -10.709   6.558  -0.121  0.00  0.00    +0.000 F 
ATOM     30  F   UNL     1      -8.932   5.430  -0.653  0.00  0.00    +0.000 F 
ENDBRANCH  25  27
ENDBRANCH  20  21
ENDBRANCH  19  20
ENDBRANCH  16  19
ENDBRANCH   9  13
BRANCH   1  34
ATOM     31  C   UNL     1      -1.082  -0.866   3.790  0.00  0.00    +0.000 A 
ATOM     32  C   UNL     1      -1.826  -1.981   3.789  0.00  0.00    +0.000 A 
ATOM     33  C   UNL     1      -3.170  -1.532   3.773  0.00  0.00    +0.000 A 
ATOM     34  C   UNL     1      -3.137  -0.175   3.769  0.00  0.00    +0.000 A 
ATOM     35  O   UNL     1      -1.835   0.263   3.792  0.00  0.00    +0.000 OA
BRANCH  31  36
ATOM     36  C   UNL     1       0.438  -0.866   3.790  0.00  0.00    +0.000 C 
BRANCH  36  37
ATOM     37  N   UNL     1       0.928  -0.006   2.703  0.00  0.00    +0.000 NA
ATOM     38  H   UNL     1       0.588  -0.361   1.809  0.00  0.00    +0.000 HD
BRANCH  37  39
ATOM     39  C   UNL     1       0.438   1.365   2.904  0.00  0.00    +0.000 C 
BRANCH  39  40
ATOM     40  C   UNL     1       0.944   2.255   1.780  0.00  0.00    +0.000 C 
BRANCH  40  42
ATOM     41  C   UNL     1       0.944  -0.064  -0.053  0.00  0.00    +0.000 C 
ATOM     42  S   UNL     1       0.341   1.625   0.194  0.00  0.00    +0.000 S 
ATOM     43  O   UNL     1       0.851   2.520  -0.937  0.00  0.00    +0.000 OA
ATOM     44  O   UNL     1      -1.190   1.625   0.194  0.00  0.00    +0.000 OA
ENDBRANCH  40  42
ENDBRANCH  39  40
ENDBRANCH  37  39
ENDBRANCH  36  37
ENDBRANCH  31  36
ENDBRANCH   1  34
TORSDOF 11
