
 OpenBabel03132514253D

 69 73  0  0  0  0  0  0  0  0999 V2000
    1.0356   -0.0259   -0.0898 C   0  0  0  0  0  0  0  0  0  0  0  0
    0.4323    1.0230   -1.4358 S   0  0  0  0  0  0  0  0  0  0  0  0
    0.9424    0.4809   -2.7730 O   0  0  0  0  0  0  0  0  0  0  0  0
   -1.0982    1.0230   -1.4358 O   0  0  0  0  0  0  0  0  0  0  0  0
    1.0356    2.7132   -1.2003 C   0  0  0  0  0  0  0  0  0  0  0  0
    0.5290    3.2517    0.1277 C   0  0  0  0  0  0  0  0  0  0  0  0
    1.0190    2.3997    1.2209 N   0  0  0  0  0  0  0  0  0  0  0  0
    0.5290    2.9205    2.5053 C   0  0  0  0  0  0  0  0  0  0  0  0
   -0.9910    2.9205    2.5053 C   0  0  0  0  0  0  0  0  0  0  0  0
   -1.7347    1.8052    2.5048 C   0  0  0  0  0  0  0  0  0  0  0  0
   -3.0782    2.2546    2.4893 C   0  0  0  0  0  0  0  0  0  0  0  0
   -3.0455    3.6108    2.4840 C   0  0  0  0  0  0  0  0  0  0  0  0
   -4.2688    4.5127    2.4580 C   0  0  0  0  0  0  0  0  0  0  0  0
   -5.2134    4.4404    3.4997 C   0  0  0  0  0  0  0  0  0  0  0  0
   -6.3210    5.2418    3.4962 C   0  0  0  0  0  0  0  0  0  0  0  0
   -6.5182    6.1770    2.4557 C   0  0  0  0  0  0  0  0  0  0  0  0
   -7.6165    6.9985    2.4766 N   0  0  0  0  0  0  0  0  0  0  0  0
   -7.7365    7.8354    1.4830 C   0  0  0  0  0  0  0  0  0  0  0  0
   -6.8913    7.9697    0.4150 N   0  0  0  0  0  0  0  0  0  0  0  0
   -5.8447    7.1810    0.3746 C   0  0  0  0  0  0  0  0  0  0  0  0
   -4.9241    7.2740   -0.7676 N   0  0  0  0  0  0  0  0  0  0  0  0
   -5.1834    8.2414   -1.8437 C   0  0  0  0  0  0  0  0  0  0  0  0
   -5.4781    7.6909   -3.0801 C   0  0  0  0  0  0  0  0  0  0  0  0
   -5.5582    8.6406   -4.1260 C   0  0  0  0  0  0  0  0  0  0  0  0
   -5.7088    9.9404   -3.9476 C   0  0  0  0  0  0  0  0  0  0  0  0
   -6.0986   10.8009   -5.0077 O   0  0  0  0  0  0  0  0  0  0  0  0
   -6.2492   12.1933   -4.7731 C   0  0  0  0  0  0  0  0  0  0  0  0
   -7.3122   12.4159   -3.7097 C   0  0  0  0  0  0  0  0  0  0  0  0
   -7.6511   13.7101   -3.3508 C   0  0  0  0  0  0  0  0  0  0  0  0
   -8.4090   13.7947   -2.1590 C   0  0  0  0  0  0  0  0  0  0  0  0
   -9.0582   12.7837   -1.6109 C   0  0  0  0  0  0  0  0  0  0  0  0
   -8.7264   11.5345   -2.0569 C   0  0  0  0  0  0  0  0  0  0  0  0
   -9.2921   10.3126   -1.3517 C   0  0  0  0  0  0  0  0  0  0  0  0
   -8.9078   10.3180   -0.0784 F   0  0  0  0  0  0  0  0  0  0  0  0
  -10.6203   10.3400   -1.4140 F   0  0  0  0  0  0  0  0  0  0  0  0
   -8.8430    9.2105   -1.9455 F   0  0  0  0  0  0  0  0  0  0  0  0
   -7.8889   11.3678   -3.1334 C   0  0  0  0  0  0  0  0  0  0  0  0
   -5.4691   10.4129   -2.6871 C   0  0  0  0  0  0  0  0  0  0  0  0
   -5.2527    9.5515   -1.6388 C   0  0  0  0  0  0  0  0  0  0  0  0
   -5.5743    6.2369    1.4058 C   0  0  0  0  0  0  0  0  0  0  0  0
   -4.4446    5.3876    1.4242 C   0  0  0  0  0  0  0  0  0  0  0  0
   -1.7433    4.0487    2.5057 O   0  0  0  0  0  0  0  0  0  0  0  0
    0.6790   -1.0251   -0.2289 H   0  0  0  0  0  0  0  0  0  0  0  0
    0.6790    0.3531    0.8451 H   0  0  0  0  0  0  0  0  0  0  0  0
    2.1056   -0.0259   -0.0898 H   0  0  0  0  0  0  0  0  0  0  0  0
    2.1056    2.7132   -1.2003 H   0  0  0  0  0  0  0  0  0  0  0  0
    0.6790    3.3333   -1.9960 H   0  0  0  0  0  0  0  0  0  0  0  0
    0.8856    4.2508    0.2669 H   0  0  0  0  0  0  0  0  0  0  0  0
   -0.5410    3.2517    0.1277 H   0  0  0  0  0  0  0  0  0  0  0  0
    0.6790    1.4473    1.0882 H   0  0  0  0  0  0  0  0  0  0  0  0
    0.8856    2.3004    3.3010 H   0  0  0  0  0  0  0  0  0  0  0  0
    0.8857    3.9196    2.6444 H   0  0  0  0  0  0  0  0  0  0  0  0
   -1.3881    0.7929    2.5142 H   0  0  0  0  0  0  0  0  0  0  0  0
   -3.9541    1.6399    2.4829 H   0  0  0  0  0  0  0  0  0  0  0  0
   -5.0626    3.7502    4.3033 H   0  0  0  0  0  0  0  0  0  0  0  0
   -7.0406    5.1606    4.2839 H   0  0  0  0  0  0  0  0  0  0  0  0
   -8.5859    8.4857    1.5055 H   0  0  0  0  0  0  0  0  0  0  0  0
   -4.1054    6.6674   -0.8136 H   0  0  0  0  0  0  0  0  0  0  0  0
   -5.6313    6.6427   -3.2307 H   0  0  0  0  0  0  0  0  0  0  0  0
   -5.4922    8.2805   -5.1314 H   0  0  0  0  0  0  0  0  0  0  0  0
   -5.3185   12.6012   -4.4380 H   0  0  0  0  0  0  0  0  0  0  0  0
   -6.5450   12.6778   -5.6801 H   0  0  0  0  0  0  0  0  0  0  0  0
   -7.3657   14.5680   -3.9230 H   0  0  0  0  0  0  0  0  0  0  0  0
   -8.4596   14.7438   -1.6676 H   0  0  0  0  0  0  0  0  0  0  0  0
   -9.8038   12.9340   -0.8583 H   0  0  0  0  0  0  0  0  0  0  0  0
   -7.6998   10.3846   -3.5107 H   0  0  0  0  0  0  0  0  0  0  0  0
   -5.4498   11.4688   -2.5147 H   0  0  0  0  0  0  0  0  0  0  0  0
   -5.1389    9.9399   -0.6483 H   0  0  0  0  0  0  0  0  0  0  0  0
   -3.7288    5.4301    0.6300 H   0  0  0  0  0  0  0  0  0  0  0  0
  1  2  1  0  0  0  0
  1 43  1  0  0  0  0
  1 44  1  0  0  0  0
  1 45  1  0  0  0  0
  2  3  2  0  0  0  0
  2  4  2  0  0  0  0
  2  5  1  0  0  0  0
  5  6  1  0  0  0  0
  5 46  1  0  0  0  0
  5 47  1  0  0  0  0
  6  7  1  0  0  0  0
  6 48  1  0  0  0  0
  6 49  1  0  0  0  0
  7  8  1  0  0  0  0
  7 50  1  0  0  0  0
  8  9  1  0  0  0  0
  8 51  1  0  0  0  0
  8 52  1  0  0  0  0
  9 10  2  0  0  0  0
  9 42  1  0  0  0  0
 10 11  1  0  0  0  0
 10 53  1  0  0  0  0
 11 12  2  0  0  0  0
 11 54  1  0  0  0  0
 12 13  1  0  0  0  0
 12 42  1  0  0  0  0
 13 14  1  0  0  0  0
 13 41  2  0  0  0  0
 14 15  2  0  0  0  0
 14 55  1  0  0  0  0
 15 16  1  0  0  0  0
 15 56  1  0  0  0  0
 16 17  1  0  0  0  0
 16 40  2  0  0  0  0
 17 18  2  0  0  0  0
 18 19  1  0  0  0  0
 18 57  1  0  0  0  0
 19 20  2  0  0  0  0
 20 21  1  0  0  0  0
 20 40  1  0  0  0  0
 21 22  1  0  0  0  0
 21 58  1  0  0  0  0
 22 23  1  0  0  0  0
 22 39  2  0  0  0  0
 23 24  2  0  0  0  0
 23 59  1  0  0  0  0
 24 25  1  0  0  0  0
 24 60  1  0  0  0  0
 25 26  1  0  0  0  0
 25 38  2  0  0  0  0
 26 27  1  0  0  0  0
 27 28  1  0  0  0  0
 27 61  1  0  0  0  0
 27 62  1  0  0  0  0
 28 29  1  0  0  0  0
 28 37  2  0  0  0  0
 29 30  2  0  0  0  0
 29 63  1  0  0  0  0
 30 31  1  0  0  0  0
 30 64  1  0  0  0  0
 31 32  2  0  0  0  0
 31 65  1  0  0  0  0
 32 33  1  0  0  0  0
 32 37  1  0  0  0  0
 33 34  1  0  0  0  0
 33 35  1  0  0  0  0
 33 36  1  0  0  0  0
 37 66  1  0  0  0  0
 38 39  1  0  0  0  0
 38 67  1  0  0  0  0
 39 68  1  0  0  0  0
 40 41  1  0  0  0  0
 41 69  1  0  0  0  0
M  END
