REMARK  Name = 
REMARK  11 active torsions:
REMARK  status: ('A' for Active; 'I' for Inactive)
REMARK    1  A    between atoms: C_1  and  S_2
REMARK    2  A    between atoms: S_2  and  C_5
REMARK    3  A    between atoms: C_5  and  C_6
REMARK    4  A    between atoms: C_6  and  N_7
REMARK    5  A    between atoms: N_7  and  C_8
REMARK    6  A    between atoms: C_8  and  C_9
REMARK    7  A    between atoms: C_13  and  C_14
REMARK    8  A    between atoms: N_22  and  C_23
REMARK    9  A    between atoms: C_26  and  O_27
REMARK   10  A    between atoms: O_27  and  C_28
REMARK   11  A    between atoms: C_28  and  C_29
REMARK                            x       y       z     vdW  Elec       q    Type
REMARK                         _______ _______ _______ _____ _____    ______ ____
ROOT
ATOM      1  C   UNL     1      -1.310  -4.764  -3.225  0.00  0.00    +0.000 A 
ATOM      2  C   UNL     1      -0.501  -5.240  -2.175  0.00  0.00    +0.000 A 
ATOM      3  C   UNL     1      -0.056  -6.532  -2.166  0.00  0.00    +0.000 A 
ATOM      4  C   UNL     1      -0.426  -7.419  -3.202  0.00  0.00    +0.000 A 
ATOM      5  N   UNL     1       0.001  -8.722  -3.168  0.00  0.00    +0.000 NA
ATOM      6  C   UNL     1      -0.376  -9.483  -4.158  0.00  0.00    +0.000 A 
ATOM      7  N   UNL     1      -1.139  -9.116  -5.234  0.00  0.00    +0.000 NA
ATOM      8  C   UNL     1      -1.542  -7.869  -5.286  0.00  0.00    +0.000 A 
ATOM      9  N   UNL     1      -2.342  -7.425  -6.436  0.00  0.00    +0.000 N 
ATOM     10  C   UNL     1      -1.226  -6.933  -4.260  0.00  0.00    +0.000 A 
ATOM     11  C   UNL     1      -1.663  -5.589  -4.254  0.00  0.00    +0.000 A 
ATOM     12  H   UNL     1      -2.663  -6.458  -6.492  0.00  0.00    +0.000 HD
ENDROOT
BRANCH   9  13
ATOM     13  C   UNL     1      -2.679  -8.374  -7.507  0.00  0.00    +0.000 A 
ATOM     14  C   UNL     1      -2.183  -8.264  -8.796  0.00  0.00    +0.000 A 
ATOM     15  C   UNL     1      -2.732  -9.201  -9.703  0.00  0.00    +0.000 A 
ATOM     16  C   UNL     1      -3.365 -10.305  -9.348  0.00  0.00    +0.000 A 
ATOM     17  C   UNL     1      -3.770 -10.381  -8.044  0.00  0.00    +0.000 A 
ATOM     18  C   UNL     1      -3.383  -9.434  -7.127  0.00  0.00    +0.000 A 
BRANCH  16  19
ATOM     19  O   UNL     1      -3.612 -11.355 -10.271  0.00  0.00    +0.000 OA
BRANCH  19  20
ATOM     20  C   UNL     1      -4.297 -12.525  -9.848  0.00  0.00    +0.000 C 
BRANCH  20  21
ATOM     21  C   UNL     1      -3.513 -13.195  -8.731  0.00  0.00    +0.000 A 
ATOM     22  C   UNL     1      -3.542 -14.578  -8.663  0.00  0.00    +0.000 A 
ATOM     23  C   UNL     1      -3.157 -15.098  -7.404  0.00  0.00    +0.000 A 
ATOM     24  C   UNL     1      -2.490 -14.421  -6.487  0.00  0.00    +0.000 A 
ATOM     25  C   UNL     1      -2.440 -13.065  -6.648  0.00  0.00    +0.000 A 
ATOM     26  C   UNL     1      -2.914 -12.471  -7.793  0.00  0.00    +0.000 A 
ENDBRANCH  20  21
ENDBRANCH  19  20
ENDBRANCH  16  19
ENDBRANCH   9  13
BRANCH   1  31
ATOM     27  C   UNL     1      -0.987  -2.232  -3.209  0.00  0.00    +0.000 A 
ATOM     28  C   UNL     1      -1.829  -1.092  -3.207  0.00  0.00    +0.000 A 
ATOM     29  C   UNL     1      -3.078  -1.578  -3.210  0.00  0.00    +0.000 A 
ATOM     30  O   UNL     1      -3.111  -2.933  -3.200  0.00  0.00    +0.000 OA
ATOM     31  C   UNL     1      -1.793  -3.323  -3.212  0.00  0.00    +0.000 A 
BRANCH  27  32
ATOM     32  C   UNL     1       0.533  -2.232  -3.209  0.00  0.00    +0.000 C 
BRANCH  32  33
ATOM     33  N   UNL     1       1.023  -2.001  -1.843  0.00  0.00    +0.000 NA
ATOM     34  H   UNL     1       0.683  -1.100  -1.507  0.00  0.00    +0.000 HD
BRANCH  33  35
ATOM     35  C   UNL     1       0.533  -3.069  -0.960  0.00  0.00    +0.000 C 
BRANCH  35  36
ATOM     36  C   UNL     1       1.039  -2.831   0.454  0.00  0.00    +0.000 C 
BRANCH  36  38
ATOM     37  C   UNL     1       1.039   0.084  -0.038  0.00  0.00    +0.000 C 
ATOM     38  S   UNL     1       0.436  -1.232   1.049  0.00  0.00    +0.000 S 
ATOM     39  O   UNL     1       0.946  -0.992   2.472  0.00  0.00    +0.000 OA
ATOM     40  O   UNL     1      -1.095  -1.232   1.049  0.00  0.00    +0.000 OA
ENDBRANCH  36  38
ENDBRANCH  35  36
ENDBRANCH  33  35
ENDBRANCH  32  33
ENDBRANCH  27  32
ENDBRANCH   1  31
TORSDOF 10
