
 OpenBabel03132512093D

 66 70  0  0  0  0  0  0  0  0999 V2000
    1.0393    0.0837   -0.0381 C   0  0  0  0  0  0  0  0  0  0  0  0
    0.4360   -1.2316    1.0491 S   0  0  0  0  0  0  0  0  0  0  0  0
    0.9461   -0.9916    2.4719 O   0  0  0  0  0  0  0  0  0  0  0  0
   -1.0945   -1.2316    1.0491 O   0  0  0  0  0  0  0  0  0  0  0  0
    1.0393   -2.8308    0.4536 C   0  0  0  0  0  0  0  0  0  0  0  0
    0.5326   -3.0693   -0.9595 C   0  0  0  0  0  0  0  0  0  0  0  0
    1.0226   -2.0010   -1.8425 N   0  0  0  0  0  0  0  0  0  0  0  0
    0.5326   -2.2316   -3.2091 C   0  0  0  0  0  0  0  0  0  0  0  0
   -0.9874   -2.2316   -3.2091 C   0  0  0  0  0  0  0  0  0  0  0  0
   -1.8290   -1.0919   -3.2065 C   0  0  0  0  0  0  0  0  0  0  0  0
   -3.0784   -1.5776   -3.2101 C   0  0  0  0  0  0  0  0  0  0  0  0
   -3.1108   -2.9333   -3.2005 O   0  0  0  0  0  0  0  0  0  0  0  0
   -1.7932   -3.3229   -3.2116 C   0  0  0  0  0  0  0  0  0  0  0  0
   -1.3099   -4.7640   -3.2247 C   0  0  0  0  0  0  0  0  0  0  0  0
   -0.5014   -5.2398   -2.1746 C   0  0  0  0  0  0  0  0  0  0  0  0
   -0.0557   -6.5322   -2.1657 C   0  0  0  0  0  0  0  0  0  0  0  0
   -0.4257   -7.4187   -3.2017 C   0  0  0  0  0  0  0  0  0  0  0  0
    0.0008   -8.7220   -3.1683 N   0  0  0  0  0  0  0  0  0  0  0  0
   -0.3762   -9.4834   -4.1584 C   0  0  0  0  0  0  0  0  0  0  0  0
   -1.1388   -9.1157   -5.2337 N   0  0  0  0  0  0  0  0  0  0  0  0
   -1.5418   -7.8691   -5.2859 C   0  0  0  0  0  0  0  0  0  0  0  0
   -2.3419   -7.4248   -6.4363 N   0  0  0  0  0  0  0  0  0  0  0  0
   -2.6794   -8.3736   -7.5072 C   0  0  0  0  0  0  0  0  0  0  0  0
   -2.1834   -8.2643   -8.7958 C   0  0  0  0  0  0  0  0  0  0  0  0
   -2.7323   -9.2014   -9.7028 C   0  0  0  0  0  0  0  0  0  0  0  0
   -3.3653  -10.3048   -9.3480 C   0  0  0  0  0  0  0  0  0  0  0  0
   -3.6125  -11.3552  -10.2711 O   0  0  0  0  0  0  0  0  0  0  0  0
   -4.2969  -12.5253   -9.8484 C   0  0  0  0  0  0  0  0  0  0  0  0
   -3.5133  -13.1950   -8.7313 C   0  0  0  0  0  0  0  0  0  0  0  0
   -3.5422  -14.5781   -8.6626 C   0  0  0  0  0  0  0  0  0  0  0  0
   -3.1571  -15.0978   -7.4041 C   0  0  0  0  0  0  0  0  0  0  0  0
   -2.4897  -14.4214   -6.4870 C   0  0  0  0  0  0  0  0  0  0  0  0
   -2.4400  -13.0645   -6.6481 C   0  0  0  0  0  0  0  0  0  0  0  0
   -2.9145  -12.4711   -7.7929 C   0  0  0  0  0  0  0  0  0  0  0  0
   -3.7698  -10.3814   -8.0442 C   0  0  0  0  0  0  0  0  0  0  0  0
   -3.3827   -9.4340   -7.1274 C   0  0  0  0  0  0  0  0  0  0  0  0
   -1.2264   -6.9333   -4.2600 C   0  0  0  0  0  0  0  0  0  0  0  0
   -1.6628   -5.5889   -4.2543 C   0  0  0  0  0  0  0  0  0  0  0  0
    0.6826    1.0291    0.3139 H   0  0  0  0  0  0  0  0  0  0  0  0
    0.6826   -0.0841   -1.0329 H   0  0  0  0  0  0  0  0  0  0  0  0
    2.1093    0.0837   -0.0381 H   0  0  0  0  0  0  0  0  0  0  0  0
    2.1093   -2.8308    0.4536 H   0  0  0  0  0  0  0  0  0  0  0  0
    0.6826   -3.6084    1.0964 H   0  0  0  0  0  0  0  0  0  0  0  0
    0.8893   -4.0146   -1.3115 H   0  0  0  0  0  0  0  0  0  0  0  0
   -0.5374   -3.0693   -0.9595 H   0  0  0  0  0  0  0  0  0  0  0  0
    0.6826   -1.0998   -1.5069 H   0  0  0  0  0  0  0  0  0  0  0  0
    0.8893   -1.4540   -3.8518 H   0  0  0  0  0  0  0  0  0  0  0  0
    0.8893   -3.1770   -3.5611 H   0  0  0  0  0  0  0  0  0  0  0  0
   -1.5312   -0.0641   -3.2025 H   0  0  0  0  0  0  0  0  0  0  0  0
   -3.9542   -0.9630   -3.2197 H   0  0  0  0  0  0  0  0  0  0  0  0
   -0.2329   -4.5822   -1.3744 H   0  0  0  0  0  0  0  0  0  0  0  0
    0.5753   -6.8733   -1.3717 H   0  0  0  0  0  0  0  0  0  0  0  0
   -0.0550  -10.5035   -4.1263 H   0  0  0  0  0  0  0  0  0  0  0  0
   -2.6628   -6.4582   -6.4915 H   0  0  0  0  0  0  0  0  0  0  0  0
   -1.4515   -7.5371   -9.0797 H   0  0  0  0  0  0  0  0  0  0  0  0
   -2.6271   -9.0022  -10.7488 H   0  0  0  0  0  0  0  0  0  0  0  0
   -5.2703  -12.2601   -9.4919 H   0  0  0  0  0  0  0  0  0  0  0  0
   -4.3909  -13.2010  -10.6728 H   0  0  0  0  0  0  0  0  0  0  0  0
   -3.8296  -15.1974   -9.4864 H   0  0  0  0  0  0  0  0  0  0  0  0
   -3.4253  -16.1091   -7.1799 H   0  0  0  0  0  0  0  0  0  0  0  0
   -2.0134  -14.9090   -5.6621 H   0  0  0  0  0  0  0  0  0  0  0  0
   -2.0257  -12.4561   -5.8715 H   0  0  0  0  0  0  0  0  0  0  0  0
   -2.8004  -11.4160   -7.9295 H   0  0  0  0  0  0  0  0  0  0  0  0
   -4.3969  -11.1907   -7.7334 H   0  0  0  0  0  0  0  0  0  0  0  0
   -3.6504   -9.5518   -6.0982 H   0  0  0  0  0  0  0  0  0  0  0  0
   -2.2683   -5.2183   -5.0549 H   0  0  0  0  0  0  0  0  0  0  0  0
  1  2  1  0  0  0  0
  1 39  1  0  0  0  0
  1 40  1  0  0  0  0
  1 41  1  0  0  0  0
  2  3  2  0  0  0  0
  2  4  2  0  0  0  0
  2  5  1  0  0  0  0
  5  6  1  0  0  0  0
  5 42  1  0  0  0  0
  5 43  1  0  0  0  0
  6  7  1  0  0  0  0
  6 44  1  0  0  0  0
  6 45  1  0  0  0  0
  7  8  1  0  0  0  0
  7 46  1  0  0  0  0
  8  9  1  0  0  0  0
  8 47  1  0  0  0  0
  8 48  1  0  0  0  0
  9 10  1  0  0  0  0
  9 13  2  0  0  0  0
 10 11  2  0  0  0  0
 10 49  1  0  0  0  0
 11 12  1  0  0  0  0
 11 50  1  0  0  0  0
 12 13  1  0  0  0  0
 13 14  1  0  0  0  0
 14 15  1  0  0  0  0
 14 38  2  0  0  0  0
 15 16  2  0  0  0  0
 15 51  1  0  0  0  0
 16 17  1  0  0  0  0
 16 52  1  0  0  0  0
 17 18  1  0  0  0  0
 17 37  2  0  0  0  0
 18 19  2  0  0  0  0
 19 20  1  0  0  0  0
 19 53  1  0  0  0  0
 20 21  2  0  0  0  0
 21 22  1  0  0  0  0
 21 37  1  0  0  0  0
 22 23  1  0  0  0  0
 22 54  1  0  0  0  0
 23 24  1  0  0  0  0
 23 36  2  0  0  0  0
 24 25  2  0  0  0  0
 24 55  1  0  0  0  0
 25 26  1  0  0  0  0
 25 56  1  0  0  0  0
 26 27  1  0  0  0  0
 26 35  2  0  0  0  0
 27 28  1  0  0  0  0
 28 29  1  0  0  0  0
 28 57  1  0  0  0  0
 28 58  1  0  0  0  0
 29 30  1  0  0  0  0
 29 34  2  0  0  0  0
 30 31  2  0  0  0  0
 30 59  1  0  0  0  0
 31 32  1  0  0  0  0
 31 60  1  0  0  0  0
 32 33  2  0  0  0  0
 32 61  1  0  0  0  0
 33 34  1  0  0  0  0
 33 62  1  0  0  0  0
 34 63  1  0  0  0  0
 35 36  1  0  0  0  0
 35 64  1  0  0  0  0
 36 65  1  0  0  0  0
 37 38  1  0  0  0  0
 38 66  1  0  0  0  0
M  END
