
 OpenBabel03132512093D

 69 73  0  0  0  0  0  0  0  0999 V2000
    0.9442   -0.0635   -0.0534 C   0  0  0  0  0  0  0  0  0  0  0  0
    0.3409    1.6249    0.1943 S   0  0  0  0  0  0  0  0  0  0  0  0
    0.8510    2.5201   -0.9374 O   0  0  0  0  0  0  0  0  0  0  0  0
   -1.1896    1.6249    0.1943 O   0  0  0  0  0  0  0  0  0  0  0  0
    0.9442    2.2546    1.7803 C   0  0  0  0  0  0  0  0  0  0  0  0
    0.4375    1.3655    2.9043 C   0  0  0  0  0  0  0  0  0  0  0  0
    0.9276   -0.0058    2.7031 N   0  0  0  0  0  0  0  0  0  0  0  0
    0.4376   -0.8656    3.7900 C   0  0  0  0  0  0  0  0  0  0  0  0
   -1.0824   -0.8656    3.7900 C   0  0  0  0  0  0  0  0  0  0  0  0
   -1.8261   -1.9809    3.7886 C   0  0  0  0  0  0  0  0  0  0  0  0
   -3.1697   -1.5315    3.7734 C   0  0  0  0  0  0  0  0  0  0  0  0
   -3.1369   -0.1753    3.7694 C   0  0  0  0  0  0  0  0  0  0  0  0
   -4.3602    0.7266    3.7441 C   0  0  0  0  0  0  0  0  0  0  0  0
   -5.3048    0.6534    4.7858 C   0  0  0  0  0  0  0  0  0  0  0  0
   -6.4123    1.4550    4.7832 C   0  0  0  0  0  0  0  0  0  0  0  0
   -6.6094    2.3913    3.7437 C   0  0  0  0  0  0  0  0  0  0  0  0
   -7.7075    3.2129    3.7655 N   0  0  0  0  0  0  0  0  0  0  0  0
   -7.8275    4.0508    2.7727 C   0  0  0  0  0  0  0  0  0  0  0  0
   -6.9822    4.1862    1.7048 N   0  0  0  0  0  0  0  0  0  0  0  0
   -5.9357    3.3974    1.6636 C   0  0  0  0  0  0  0  0  0  0  0  0
   -5.0152    3.4914    0.5214 N   0  0  0  0  0  0  0  0  0  0  0  0
   -5.2743    4.4599   -0.5536 C   0  0  0  0  0  0  0  0  0  0  0  0
   -5.5690    3.9108   -1.7906 C   0  0  0  0  0  0  0  0  0  0  0  0
   -5.6489    4.8615   -2.8355 C   0  0  0  0  0  0  0  0  0  0  0  0
   -5.7993    6.1611   -2.6558 C   0  0  0  0  0  0  0  0  0  0  0  0
   -6.1889    7.0228   -3.7151 O   0  0  0  0  0  0  0  0  0  0  0  0
   -6.3393    8.4149   -3.4791 C   0  0  0  0  0  0  0  0  0  0  0  0
   -7.4023    8.6366   -2.4155 C   0  0  0  0  0  0  0  0  0  0  0  0
   -7.7419    9.9305   -2.0562 C   0  0  0  0  0  0  0  0  0  0  0  0
   -8.4998   10.0143   -0.8644 C   0  0  0  0  0  0  0  0  0  0  0  0
   -9.1485    9.0028   -0.3166 C   0  0  0  0  0  0  0  0  0  0  0  0
   -8.8161    7.7539   -0.7631 C   0  0  0  0  0  0  0  0  0  0  0  0
   -9.3812    6.5315   -0.0583 C   0  0  0  0  0  0  0  0  0  0  0  0
   -8.9969    6.5367    1.2150 F   0  0  0  0  0  0  0  0  0  0  0  0
  -10.7094    6.5583   -0.1207 F   0  0  0  0  0  0  0  0  0  0  0  0
   -8.9316    5.4298   -0.6526 F   0  0  0  0  0  0  0  0  0  0  0  0
   -7.9786    7.5881   -1.8396 C   0  0  0  0  0  0  0  0  0  0  0  0
   -5.5596    6.6324   -1.3949 C   0  0  0  0  0  0  0  0  0  0  0  0
   -5.3434    5.7699   -0.3474 C   0  0  0  0  0  0  0  0  0  0  0  0
   -5.6655    2.4522    2.6938 C   0  0  0  0  0  0  0  0  0  0  0  0
   -4.5359    1.6027    2.7113 C   0  0  0  0  0  0  0  0  0  0  0  0
   -1.8348    0.2626    3.7915 O   0  0  0  0  0  0  0  0  0  0  0  0
    0.5875   -0.4357   -0.9910 H   0  0  0  0  0  0  0  0  0  0  0  0
    0.5875   -0.6894    0.7377 H   0  0  0  0  0  0  0  0  0  0  0  0
    2.0142   -0.0635   -0.0534 H   0  0  0  0  0  0  0  0  0  0  0  0
    2.0142    2.2546    1.7803 H   0  0  0  0  0  0  0  0  0  0  0  0
    0.5875    3.2527    1.9268 H   0  0  0  0  0  0  0  0  0  0  0  0
    0.7942    1.7377    3.8419 H   0  0  0  0  0  0  0  0  0  0  0  0
   -0.6325    1.3655    2.9043 H   0  0  0  0  0  0  0  0  0  0  0  0
    0.5876   -0.3606    1.8093 H   0  0  0  0  0  0  0  0  0  0  0  0
    0.7942   -1.8637    3.6436 H   0  0  0  0  0  0  0  0  0  0  0  0
    0.7942   -0.4934    4.7276 H   0  0  0  0  0  0  0  0  0  0  0  0
   -1.4795   -2.9932    3.7971 H   0  0  0  0  0  0  0  0  0  0  0  0
   -4.0455   -2.1462    3.7665 H   0  0  0  0  0  0  0  0  0  0  0  0
   -5.1541   -0.0377    5.5887 H   0  0  0  0  0  0  0  0  0  0  0  0
   -7.1319    1.3730    5.5708 H   0  0  0  0  0  0  0  0  0  0  0  0
   -8.6768    4.7013    2.7959 H   0  0  0  0  0  0  0  0  0  0  0  0
   -4.1966    2.8847    0.4748 H   0  0  0  0  0  0  0  0  0  0  0  0
   -5.7224    2.8627   -1.9422 H   0  0  0  0  0  0  0  0  0  0  0  0
   -5.5829    4.5024   -3.8413 H   0  0  0  0  0  0  0  0  0  0  0  0
   -5.4085    8.8224   -3.1435 H   0  0  0  0  0  0  0  0  0  0  0  0
   -6.6350    8.9005   -4.3856 H   0  0  0  0  0  0  0  0  0  0  0  0
   -7.4569   10.7888   -2.6281 H   0  0  0  0  0  0  0  0  0  0  0  0
   -8.5510   10.9633   -0.3727 H   0  0  0  0  0  0  0  0  0  0  0  0
   -9.8942    9.1525    0.4360 H   0  0  0  0  0  0  0  0  0  0  0  0
   -7.7889    6.6051   -2.2173 H   0  0  0  0  0  0  0  0  0  0  0  0
   -5.5401    7.6880   -1.2214 H   0  0  0  0  0  0  0  0  0  0  0  0
   -5.2297    6.1573    0.6435 H   0  0  0  0  0  0  0  0  0  0  0  0
   -3.8202    1.6459    1.9171 H   0  0  0  0  0  0  0  0  0  0  0  0
  1  2  1  0  0  0  0
  1 43  1  0  0  0  0
  1 44  1  0  0  0  0
  1 45  1  0  0  0  0
  2  3  2  0  0  0  0
  2  4  2  0  0  0  0
  2  5  1  0  0  0  0
  5  6  1  0  0  0  0
  5 46  1  0  0  0  0
  5 47  1  0  0  0  0
  6  7  1  0  0  0  0
  6 48  1  0  0  0  0
  6 49  1  0  0  0  0
  7  8  1  0  0  0  0
  7 50  1  0  0  0  0
  8  9  1  0  0  0  0
  8 51  1  0  0  0  0
  8 52  1  0  0  0  0
  9 10  2  0  0  0  0
  9 42  1  0  0  0  0
 10 11  1  0  0  0  0
 10 53  1  0  0  0  0
 11 12  2  0  0  0  0
 11 54  1  0  0  0  0
 12 13  1  0  0  0  0
 12 42  1  0  0  0  0
 13 14  1  0  0  0  0
 13 41  2  0  0  0  0
 14 15  2  0  0  0  0
 14 55  1  0  0  0  0
 15 16  1  0  0  0  0
 15 56  1  0  0  0  0
 16 17  1  0  0  0  0
 16 40  2  0  0  0  0
 17 18  2  0  0  0  0
 18 19  1  0  0  0  0
 18 57  1  0  0  0  0
 19 20  2  0  0  0  0
 20 21  1  0  0  0  0
 20 40  1  0  0  0  0
 21 22  1  0  0  0  0
 21 58  1  0  0  0  0
 22 23  1  0  0  0  0
 22 39  2  0  0  0  0
 23 24  2  0  0  0  0
 23 59  1  0  0  0  0
 24 25  1  0  0  0  0
 24 60  1  0  0  0  0
 25 26  1  0  0  0  0
 25 38  2  0  0  0  0
 26 27  1  0  0  0  0
 27 28  1  0  0  0  0
 27 61  1  0  0  0  0
 27 62  1  0  0  0  0
 28 29  1  0  0  0  0
 28 37  2  0  0  0  0
 29 30  2  0  0  0  0
 29 63  1  0  0  0  0
 30 31  1  0  0  0  0
 30 64  1  0  0  0  0
 31 32  2  0  0  0  0
 31 65  1  0  0  0  0
 32 33  1  0  0  0  0
 32 37  1  0  0  0  0
 33 34  1  0  0  0  0
 33 35  1  0  0  0  0
 33 36  1  0  0  0  0
 37 66  1  0  0  0  0
 38 39  1  0  0  0  0
 38 67  1  0  0  0  0
 39 68  1  0  0  0  0
 40 41  1  0  0  0  0
 41 69  1  0  0  0  0
M  END
