REMARK  Name = 
REMARK  4 active torsions:
REMARK  status: ('A' for Active; 'I' for Inactive)
REMARK    1  A    between atoms: C_2  and  C_3
REMARK    2  A    between atoms: C_7  and  C_8
REMARK    3  A    between atoms: N_13  and  C_14
REMARK    4  A    between atoms: C_18  and  C_19
REMARK                            x       y       z     vdW  Elec       q    Type
REMARK                         _______ _______ _______ _____ _____    ______ ____
ROOT
ATOM      1  C   UNL     1       3.711   0.048   0.052  0.00  0.00    +0.000 A 
ATOM      2  C   UNL     1       4.374   1.234   0.051  0.00  0.00    +0.000 A 
ATOM      3  C   UNL     1       5.724   1.292   0.063  0.00  0.00    +0.000 A 
ATOM      4  C   UNL     1       6.468   0.111   0.066  0.00  0.00    +0.000 A 
ATOM      5  C   UNL     1       7.778  -0.184   0.072  0.00  0.00    +0.000 A 
ATOM      6  C   UNL     1       7.909  -1.495   0.072  0.00  0.00    +0.000 A 
ATOM      7  N   UNL     1       6.720  -2.079   0.065  0.00  0.00    +0.000 NA
ATOM      8  N   UNL     1       5.780  -1.135   0.061  0.00  0.00    +0.000 N 
ATOM      9  C   UNL     1       4.370  -1.131   0.054  0.00  0.00    +0.000 A 
ENDROOT
BRANCH   5  10
ATOM     10  C   UNL     1       8.917   0.823   0.077  0.00  0.00    +0.000 A 
ATOM     11  C   UNL     1       9.856   0.852  -0.948  0.00  0.00    +0.000 A 
ATOM     12  C   UNL     1      10.541   2.073  -1.142  0.00  0.00    +0.000 A 
ATOM     13  N   UNL     1      10.830   2.808   0.006  0.00  0.00    +0.000 NA
ATOM     14  C   UNL     1      10.089   2.612   1.076  0.00  0.00    +0.000 A 
ATOM     15  N   UNL     1      10.371   3.369   2.304  0.00  0.00    +0.000 N 
ATOM     16  N   UNL     1       9.037   1.690   1.059  0.00  0.00    +0.000 NA
ATOM     17  H   UNL     1       9.801   3.222   3.137  0.00  0.00    +0.000 HD
BRANCH  15  18
ATOM     18  C   UNL     1      11.475   4.340   2.331  0.00  0.00    +0.000 C 
ATOM     19  C   UNL     1      12.488   4.280   1.186  0.00  0.00    +0.000 C 
ATOM     20  C   UNL     1      11.861   5.618   1.583  0.00  0.00    +0.000 C 
ENDBRANCH  15  18
ENDBRANCH   5  10
BRANCH   6  21
ATOM     21  C   UNL     1       9.237  -2.234   0.080  0.00  0.00    +0.000 A 
ATOM     22  C   UNL     1      10.158  -2.047   1.149  0.00  0.00    +0.000 A 
ATOM     23  C   UNL     1      11.482  -2.491   1.002  0.00  0.00    +0.000 A 
ATOM     24  C   UNL     1      11.795  -3.297   0.031  0.00  0.00    +0.000 A 
ATOM     25  F   UNL     1      13.052  -3.708  -0.113  0.00  0.00    +0.000 F 
ATOM     26  C   UNL     1      10.809  -3.733  -0.865  0.00  0.00    +0.000 A 
ATOM     27  C   UNL     1       9.561  -3.066  -0.911  0.00  0.00    +0.000 A 
ENDBRANCH   6  21
BRANCH   1  29
ATOM     28  N   UNL     1       0.929   0.048   0.052  0.00  0.00    +0.000 NA
ATOM     29  C   UNL     1       2.191   0.048   0.052  0.00  0.00    +0.000 C 
ENDBRANCH   1  29
TORSDOF 4
