REMARK  Name = 
REMARK  11 active torsions:
REMARK  status: ('A' for Active; 'I' for Inactive)
REMARK    1  A    between atoms: C_1  and  S_2
REMARK    2  A    between atoms: S_2  and  C_5
REMARK    3  A    between atoms: C_5  and  C_6
REMARK    4  A    between atoms: C_6  and  N_7
REMARK    5  A    between atoms: N_7  and  C_8
REMARK    6  A    between atoms: C_8  and  C_9
REMARK    7  A    between atoms: C_12  and  C_13
REMARK    8  A    between atoms: N_21  and  C_22
REMARK    9  A    between atoms: C_25  and  O_26
REMARK   10  A    between atoms: O_26  and  C_27
REMARK   11  A    between atoms: C_27  and  C_28
REMARK                            x       y       z     vdW  Elec       q    Type
REMARK                         _______ _______ _______ _____ _____    ______ ____
ROOT
ATOM      1  C   UNL     1      -4.391  -3.900  -3.169  0.00  0.00    +0.000 A 
ATOM      2  C   UNL     1      -4.619  -4.806  -2.116  0.00  0.00    +0.000 A 
ATOM      3  C   UNL     1      -5.736  -5.593  -2.101  0.00  0.00    +0.000 A 
ATOM      4  C   UNL     1      -6.694  -5.487  -3.134  0.00  0.00    +0.000 A 
ATOM      5  N   UNL     1      -7.827  -6.259  -3.095  0.00  0.00    +0.000 NA
ATOM      6  C   UNL     1      -8.667  -6.112  -4.083  0.00  0.00    +0.000 A 
ATOM      7  N   UNL     1      -8.530  -5.280  -5.161  0.00  0.00    +0.000 NA
ATOM      8  C   UNL     1      -7.444  -4.546  -5.218  0.00  0.00    +0.000 A 
ATOM      9  N   UNL     1      -7.244  -3.657  -6.372  0.00  0.00    +0.000 N 
ATOM     10  C   UNL     1      -6.454  -4.586  -4.196  0.00  0.00    +0.000 A 
ATOM     11  C   UNL     1      -5.285  -3.793  -4.196  0.00  0.00    +0.000 A 
ATOM     12  H   UNL     1      -6.405  -3.080  -6.431  0.00  0.00    +0.000 HD
ENDROOT
BRANCH   9  13
ATOM     13  C   UNL     1      -8.253  -3.599  -7.439  0.00  0.00    +0.000 A 
ATOM     14  C   UNL     1      -7.892  -3.935  -8.734  0.00  0.00    +0.000 A 
ATOM     15  C   UNL     1      -8.848  -3.567  -9.710  0.00  0.00    +0.000 A 
ATOM     16  C   UNL     1     -10.109  -3.271  -9.449  0.00  0.00    +0.000 A 
ATOM     17  C   UNL     1     -10.416  -3.017  -8.141  0.00  0.00    +0.000 A 
ATOM     18  C   UNL     1      -9.493  -3.227  -7.145  0.00  0.00    +0.000 A 
BRANCH  16  19
ATOM     19  O   UNL     1     -11.093  -3.221 -10.471  0.00  0.00    +0.000 OA
BRANCH  19  20
ATOM     20  C   UNL     1     -12.437  -2.899 -10.148  0.00  0.00    +0.000 C 
BRANCH  20  21
ATOM     21  C   UNL     1     -12.981  -3.923  -9.165  0.00  0.00    +0.000 A 
ATOM     22  C   UNL     1     -13.460  -3.541  -7.923  0.00  0.00    +0.000 A 
ATOM     23  C   UNL     1     -13.473  -4.585  -6.968  0.00  0.00    +0.000 A 
ATOM     24  C   UNL     1     -13.400  -5.871  -7.262  0.00  0.00    +0.000 A 
ATOM     25  C   UNL     1     -12.986  -6.182  -8.527  0.00  0.00    +0.000 A 
ATOM     26  C   UNL     1     -12.824  -5.204  -9.479  0.00  0.00    +0.000 A 
ENDBRANCH  20  21
ENDBRANCH  19  20
ENDBRANCH  16  19
ENDBRANCH   9  13
BRANCH   1  30
ATOM     27  C   UNL     1      -1.008  -2.379  -3.168  0.00  0.00    +0.000 A 
ATOM     28  C   UNL     1      -1.822  -1.314  -3.171  0.00  0.00    +0.000 A 
ATOM     29  O   UNL     1      -3.133  -1.660  -3.156  0.00  0.00    +0.000 OA
ATOM     30  C   UNL     1      -3.141  -3.034  -3.163  0.00  0.00    +0.000 A 
ATOM     31  C   UNL     1      -1.868  -3.505  -3.164  0.00  0.00    +0.000 A 
BRANCH  27  32
ATOM     32  C   UNL     1       0.512  -2.379  -3.168  0.00  0.00    +0.000 C 
BRANCH  32  33
ATOM     33  N   UNL     1       1.002  -2.162  -1.799  0.00  0.00    +0.000 NA
ATOM     34  H   UNL     1       0.662  -1.264  -1.455  0.00  0.00    +0.000 HD
BRANCH  33  35
ATOM     35  C   UNL     1       0.512  -3.239  -0.926  0.00  0.00    +0.000 C 
BRANCH  35  36
ATOM     36  C   UNL     1       1.019  -3.014   0.489  0.00  0.00    +0.000 C 
BRANCH  36  38
ATOM     37  C   UNL     1       1.019  -0.095   0.026  0.00  0.00    +0.000 C 
ATOM     38  S   UNL     1       0.415  -1.421   1.100  0.00  0.00    +0.000 S 
ATOM     39  O   UNL     1       0.926  -1.194   2.525  0.00  0.00    +0.000 OA
ATOM     40  O   UNL     1      -1.115  -1.421   1.100  0.00  0.00    +0.000 OA
ENDBRANCH  36  38
ENDBRANCH  35  36
ENDBRANCH  33  35
ENDBRANCH  32  33
ENDBRANCH  27  32
ENDBRANCH   1  30
TORSDOF 10
