
 OpenBabel03132514253D

 43 47  0  0  0  0  0  0  0  0999 V2000
    1.0192   -0.0467    0.0863 N   0  0  0  0  0  0  0  0  0  0  0  0
    2.2802   -0.0467    0.0863 C   0  0  0  0  0  0  0  0  0  0  0  0
    3.8002   -0.0467    0.0863 C   0  0  0  0  0  0  0  0  0  0  0  0
    4.4635    1.1395    0.0848 C   0  0  0  0  0  0  0  0  0  0  0  0
    5.8140    1.1976    0.0969 C   0  0  0  0  0  0  0  0  0  0  0  0
    6.5582    0.0163    0.0999 C   0  0  0  0  0  0  0  0  0  0  0  0
    7.8681   -0.2790    0.1058 C   0  0  0  0  0  0  0  0  0  0  0  0
    9.0068    0.7279    0.1109 C   0  0  0  0  0  0  0  0  0  0  0  0
    9.9461    0.7574   -0.9142 C   0  0  0  0  0  0  0  0  0  0  0  0
   10.6309    1.9778   -1.1080 C   0  0  0  0  0  0  0  0  0  0  0  0
   10.9192    2.7133    0.0402 N   0  0  0  0  0  0  0  0  0  0  0  0
   10.1790    2.5167    1.1106 C   0  0  0  0  0  0  0  0  0  0  0  0
   10.4610    3.2745    2.3382 N   0  0  0  0  0  0  0  0  0  0  0  0
   11.5646    4.2452    2.3656 C   0  0  0  0  0  0  0  0  0  0  0  0
   12.5774    4.1847    1.2203 C   0  0  0  0  0  0  0  0  0  0  0  0
   11.9503    5.5235    1.6172 C   0  0  0  0  0  0  0  0  0  0  0  0
    9.1266    1.5947    1.0935 N   0  0  0  0  0  0  0  0  0  0  0  0
    7.9983   -1.5900    0.1065 C   0  0  0  0  0  0  0  0  0  0  0  0
    9.3267   -2.3287    0.1145 C   0  0  0  0  0  0  0  0  0  0  0  0
   10.2474   -2.1423    1.1830 C   0  0  0  0  0  0  0  0  0  0  0  0
   11.5720   -2.5856    1.0363 C   0  0  0  0  0  0  0  0  0  0  0  0
   11.8846   -3.3918    0.0648 C   0  0  0  0  0  0  0  0  0  0  0  0
   13.1413   -3.8027   -0.0790 F   0  0  0  0  0  0  0  0  0  0  0  0
   10.8990   -3.8280   -0.8306 C   0  0  0  0  0  0  0  0  0  0  0  0
    9.6506   -3.1610   -0.8765 C   0  0  0  0  0  0  0  0  0  0  0  0
    6.8092   -2.1743    0.0992 N   0  0  0  0  0  0  0  0  0  0  0  0
    5.8701   -1.2295    0.0952 N   0  0  0  0  0  0  0  0  0  0  0  0
    4.4595   -1.2256    0.0878 C   0  0  0  0  0  0  0  0  0  0  0  0
    3.9025    2.0505    0.0737 H   0  0  0  0  0  0  0  0  0  0  0  0
    6.3107    2.1453    0.1043 H   0  0  0  0  0  0  0  0  0  0  0  0
   10.1400   -0.0998   -1.5245 H   0  0  0  0  0  0  0  0  0  0  0  0
   10.9127    2.3186   -2.0824 H   0  0  0  0  0  0  0  0  0  0  0  0
    9.8910    3.1267    3.1711 H   0  0  0  0  0  0  0  0  0  0  0  0
   11.4275    4.1316    3.4207 H   0  0  0  0  0  0  0  0  0  0  0  0
   13.5775    3.8198    1.1133 H   0  0  0  0  0  0  0  0  0  0  0  0
   12.3095    3.7225    0.2932 H   0  0  0  0  0  0  0  0  0  0  0  0
   11.4112    6.2896    1.1001 H   0  0  0  0  0  0  0  0  0  0  0  0
   12.5441    6.2694    2.1030 H   0  0  0  0  0  0  0  0  0  0  0  0
    9.9337   -1.6689    2.0898 H   0  0  0  0  0  0  0  0  0  0  0  0
   12.3242   -2.2598    1.7240 H   0  0  0  0  0  0  0  0  0  0  0  0
   11.0885   -4.6602   -1.4759 H   0  0  0  0  0  0  0  0  0  0  0  0
    8.9780   -3.3220   -1.6930 H   0  0  0  0  0  0  0  0  0  0  0  0
    3.9169   -2.1478    0.0834 H   0  0  0  0  0  0  0  0  0  0  0  0
  1  2  3  0  0  0  0
  2  3  1  0  0  0  0
  3  4  1  0  0  0  0
  3 28  2  0  0  0  0
  4  5  2  0  0  0  0
  4 29  1  0  0  0  0
  5  6  1  0  0  0  0
  5 30  1  0  0  0  0
  6  7  2  0  0  0  0
  6 27  1  0  0  0  0
  7  8  1  0  0  0  0
  7 18  1  0  0  0  0
  8  9  1  0  0  0  0
  8 17  2  0  0  0  0
  9 10  2  0  0  0  0
  9 31  1  0  0  0  0
 10 11  1  0  0  0  0
 10 32  1  0  0  0  0
 11 12  2  0  0  0  0
 12 13  1  0  0  0  0
 12 17  1  0  0  0  0
 13 14  1  0  0  0  0
 13 33  1  0  0  0  0
 14 15  1  0  0  0  0
 14 16  1  0  0  0  0
 14 34  1  0  0  0  0
 15 16  1  0  0  0  0
 15 35  1  0  0  0  0
 15 36  1  0  0  0  0
 16 37  1  0  0  0  0
 16 38  1  0  0  0  0
 18 19  1  0  0  0  0
 18 26  2  0  0  0  0
 19 20  1  0  0  0  0
 19 25  2  0  0  0  0
 20 21  2  0  0  0  0
 20 39  1  0  0  0  0
 21 22  1  0  0  0  0
 21 40  1  0  0  0  0
 22 23  1  0  0  0  0
 22 24  2  0  0  0  0
 24 25  1  0  0  0  0
 24 41  1  0  0  0  0
 25 42  1  0  0  0  0
 26 27  1  0  0  0  0
 27 28  1  0  0  0  0
 28 43  1  0  0  0  0
M  END
