REMARK  Name = 
REMARK  7 active torsions:
REMARK  status: ('A' for Active; 'I' for Inactive)
REMARK    1  A    between atoms: O_1  and  C_2
REMARK    2  A    between atoms: C_2  and  C_3
REMARK    3  A    between atoms: C_3  and  C_4
REMARK    4  A    between atoms: C_4  and  N_5
REMARK    5  A    between atoms: C_10  and  C_11
REMARK    6  A    between atoms: C_12  and  C_13
REMARK    7  A    between atoms: C_23  and  C_24
REMARK                            x       y       z     vdW  Elec       q    Type
REMARK                         _______ _______ _______ _____ _____    ______ ____
ROOT
ATOM      1  C   UNL     1       6.729   5.077   1.984  0.00  0.00    +0.000 A 
ATOM      2  C   UNL     1       7.756   4.252   1.965  0.00  0.00    +0.000 A 
ATOM      3  N   UNL     1       8.601   4.540   2.945  0.00  0.00    +0.000 NA
ATOM      4  N   UNL     1       8.123   5.580   3.627  0.00  0.00    +0.000 N 
ATOM      5  C   UNL     1       8.558   6.325   4.743  0.00  0.00    +0.000 A 
ATOM      6  C   UNL     1       7.803   7.354   5.188  0.00  0.00    +0.000 A 
ATOM      7  C   UNL     1       6.630   7.686   4.589  0.00  0.00    +0.000 A 
ATOM      8  C   UNL     1       6.166   7.012   3.513  0.00  0.00    +0.000 A 
ATOM      9  C   UNL     1       6.896   5.938   3.001  0.00  0.00    +0.000 A 
ENDROOT
BRANCH   1  15
ATOM     10  N   UNL     1       2.963   2.806  -0.055  0.00  0.00    +0.000 N 
ATOM     11  C   UNL     1       3.808   4.005   0.044  0.00  0.00    +0.000 A 
ATOM     12  N   UNL     1       3.500   5.017  -0.777  0.00  0.00    +0.000 NA
ATOM     13  C   UNL     1       4.281   6.097  -0.627  0.00  0.00    +0.000 A 
ATOM     14  C   UNL     1       5.316   6.174   0.250  0.00  0.00    +0.000 A 
ATOM     15  C   UNL     1       5.556   5.059   1.018  0.00  0.00    +0.000 A 
ATOM     16  N   UNL     1       4.806   3.967   0.949  0.00  0.00    +0.000 NA
ATOM     17  H   UNL     1       2.717   2.430  -0.971  0.00  0.00    +0.000 HD
BRANCH  10  18
ATOM     18  C   UNL     1       2.473   2.149   1.165  0.00  0.00    +0.000 C 
BRANCH  18  19
ATOM     19  C   UNL     1       0.953   2.149   1.165  0.00  0.00    +0.000 C 
BRANCH  19  20
ATOM     20  C   UNL     1       0.446   1.396  -0.054  0.00  0.00    +0.000 C 
BRANCH  20  21
ATOM     21  O   UNL     1       0.920   0.058  -0.014  0.00  0.00    +0.000 OA
ATOM     22  H   UNL     1       1.920   0.058  -0.014  0.00  0.00    +0.000 HD
ENDBRANCH  20  21
ENDBRANCH  19  20
ENDBRANCH  18  19
ENDBRANCH  10  18
ENDBRANCH   1  15
BRANCH   2  23
ATOM     23  C   UNL     1       7.946   3.127   0.961  0.00  0.00    +0.000 A 
ATOM     24  C   UNL     1       8.025   3.449  -0.423  0.00  0.00    +0.000 A 
ATOM     25  C   UNL     1       7.785   2.447  -1.378  0.00  0.00    +0.000 A 
ATOM     26  C   UNL     1       7.763   1.198  -1.019  0.00  0.00    +0.000 A 
ATOM     27  F   UNL     1       7.526   0.251  -1.922  0.00  0.00    +0.000 F 
ATOM     28  C   UNL     1       7.991   0.847   0.319  0.00  0.00    +0.000 A 
ATOM     29  C   UNL     1       7.930   1.843   1.323  0.00  0.00    +0.000 A 
ENDBRANCH   2  23
BRANCH   6  30
ATOM     30  C   UNL     1       8.279   8.159   6.386  0.00  0.00    +0.000 C 
ATOM     31  F   UNL     1       8.398   7.357   7.440  0.00  0.00    +0.000 F 
ATOM     32  F   UNL     1       9.459   8.708   6.111  0.00  0.00    +0.000 F 
ATOM     33  F   UNL     1       7.396   9.117   6.655  0.00  0.00    +0.000 F 
ENDBRANCH   6  30
TORSDOF 7
