
 OpenBabel03132512093D

 66 70  0  0  0  0  0  0  0  0999 V2000
    0.9302   -0.0064   -0.0714 C   0  0  0  0  0  0  0  0  0  0  0  0
    0.3269    1.6373    0.3872 S   0  0  0  0  0  0  0  0  0  0  0  0
    0.8371    2.6680   -0.6226 O   0  0  0  0  0  0  0  0  0  0  0  0
   -1.2035    1.6373    0.3872 O   0  0  0  0  0  0  0  0  0  0  0  0
    0.9302    2.0620    2.0400 C   0  0  0  0  0  0  0  0  0  0  0  0
    0.4236    1.0383    3.0429 C   0  0  0  0  0  0  0  0  0  0  0  0
    0.9136   -0.2966    2.6704 N   0  0  0  0  0  0  0  0  0  0  0  0
    0.4236   -1.2867    3.6403 C   0  0  0  0  0  0  0  0  0  0  0  0
   -1.0964   -1.2867    3.6403 C   0  0  0  0  0  0  0  0  0  0  0  0
   -1.8401   -2.4020    3.6389 C   0  0  0  0  0  0  0  0  0  0  0  0
   -3.1836   -1.9525    3.6237 C   0  0  0  0  0  0  0  0  0  0  0  0
   -3.1509   -0.5964    3.6197 C   0  0  0  0  0  0  0  0  0  0  0  0
   -4.3741    0.3055    3.5944 C   0  0  0  0  0  0  0  0  0  0  0  0
   -5.3188    0.2323    4.6361 C   0  0  0  0  0  0  0  0  0  0  0  0
   -6.4262    1.0339    4.6335 C   0  0  0  0  0  0  0  0  0  0  0  0
   -6.6233    1.9702    3.5939 C   0  0  0  0  0  0  0  0  0  0  0  0
   -7.7215    2.7919    3.6157 N   0  0  0  0  0  0  0  0  0  0  0  0
   -7.8414    3.6298    2.6230 C   0  0  0  0  0  0  0  0  0  0  0  0
   -6.9962    3.7652    1.5551 N   0  0  0  0  0  0  0  0  0  0  0  0
   -5.9497    2.9763    1.5139 C   0  0  0  0  0  0  0  0  0  0  0  0
   -5.0291    3.0704    0.3717 N   0  0  0  0  0  0  0  0  0  0  0  0
   -5.2883    4.0389   -0.7033 C   0  0  0  0  0  0  0  0  0  0  0  0
   -5.3388    5.3833   -0.3715 C   0  0  0  0  0  0  0  0  0  0  0  0
   -5.4144    6.3514   -1.3666 C   0  0  0  0  0  0  0  0  0  0  0  0
   -5.4618    5.9690   -2.7032 C   0  0  0  0  0  0  0  0  0  0  0  0
   -5.5293    6.9456   -3.7318 O   0  0  0  0  0  0  0  0  0  0  0  0
   -5.5772    6.5417   -5.0923 C   0  0  0  0  0  0  0  0  0  0  0  0
   -4.3293    5.7412   -5.4274 C   0  0  0  0  0  0  0  0  0  0  0  0
   -4.4285    4.3637   -5.5339 C   0  0  0  0  0  0  0  0  0  0  0  0
   -3.1795    3.6994   -5.5611 C   0  0  0  0  0  0  0  0  0  0  0  0
   -2.0257    4.2842   -5.8272 C   0  0  0  0  0  0  0  0  0  0  0  0
   -2.0095    5.6503   -5.7722 C   0  0  0  0  0  0  0  0  0  0  0  0
   -3.1726    6.3652   -5.6168 C   0  0  0  0  0  0  0  0  0  0  0  0
   -5.4419    4.6195   -3.0135 C   0  0  0  0  0  0  0  0  0  0  0  0
   -5.5186    4.1526   -4.6848 Cl  0  0  0  0  0  0  0  0  0  0  0  0
   -5.3259    3.6397   -2.0387 C   0  0  0  0  0  0  0  0  0  0  0  0
   -5.6794    2.0311    2.5441 C   0  0  0  0  0  0  0  0  0  0  0  0
   -4.5499    1.1816    2.5616 C   0  0  0  0  0  0  0  0  0  0  0  0
   -1.8487   -0.1584    3.6418 O   0  0  0  0  0  0  0  0  0  0  0  0
    0.5736   -0.2575   -1.0484 H   0  0  0  0  0  0  0  0  0  0  0  0
    0.5736   -0.7270    0.6346 H   0  0  0  0  0  0  0  0  0  0  0  0
    2.0002   -0.0064   -0.0714 H   0  0  0  0  0  0  0  0  0  0  0  0
    2.0002    2.0620    2.0400 H   0  0  0  0  0  0  0  0  0  0  0  0
    0.5736    3.0337    2.3111 H   0  0  0  0  0  0  0  0  0  0  0  0
    0.7803    1.2894    4.0199 H   0  0  0  0  0  0  0  0  0  0  0  0
   -0.6464    1.0383    3.0429 H   0  0  0  0  0  0  0  0  0  0  0  0
    0.5736   -0.5360    1.7390 H   0  0  0  0  0  0  0  0  0  0  0  0
    0.7803   -2.2583    3.3692 H   0  0  0  0  0  0  0  0  0  0  0  0
    0.7803   -1.0356    4.6174 H   0  0  0  0  0  0  0  0  0  0  0  0
   -1.4935   -3.4143    3.6473 H   0  0  0  0  0  0  0  0  0  0  0  0
   -4.0594   -2.5672    3.6168 H   0  0  0  0  0  0  0  0  0  0  0  0
   -5.1680   -0.4587    5.4390 H   0  0  0  0  0  0  0  0  0  0  0  0
   -7.1459    0.9520    5.4211 H   0  0  0  0  0  0  0  0  0  0  0  0
   -8.6907    4.2802    2.6462 H   0  0  0  0  0  0  0  0  0  0  0  0
   -4.2106    2.4636    0.3251 H   0  0  0  0  0  0  0  0  0  0  0  0
   -5.3196    5.6783    0.6568 H   0  0  0  0  0  0  0  0  0  0  0  0
   -5.4360    7.3886   -1.1047 H   0  0  0  0  0  0  0  0  0  0  0  0
   -6.4439    5.9355   -5.2541 H   0  0  0  0  0  0  0  0  0  0  0  0
   -5.6250    7.4071   -5.7198 H   0  0  0  0  0  0  0  0  0  0  0  0
   -5.3647    3.8488   -5.5905 H   0  0  0  0  0  0  0  0  0  0  0  0
   -3.1691    2.6502   -5.3514 H   0  0  0  0  0  0  0  0  0  0  0  0
   -1.1507    3.7194   -6.0726 H   0  0  0  0  0  0  0  0  0  0  0  0
   -1.0776    6.1702   -5.8513 H   0  0  0  0  0  0  0  0  0  0  0  0
   -3.1460    7.4344   -5.6488 H   0  0  0  0  0  0  0  0  0  0  0  0
   -5.2669    2.6049   -2.3045 H   0  0  0  0  0  0  0  0  0  0  0  0
   -3.8341    1.2248    1.7674 H   0  0  0  0  0  0  0  0  0  0  0  0
  1  2  1  0  0  0  0
  1 40  1  0  0  0  0
  1 41  1  0  0  0  0
  1 42  1  0  0  0  0
  2  3  2  0  0  0  0
  2  4  2  0  0  0  0
  2  5  1  0  0  0  0
  5  6  1  0  0  0  0
  5 43  1  0  0  0  0
  5 44  1  0  0  0  0
  6  7  1  0  0  0  0
  6 45  1  0  0  0  0
  6 46  1  0  0  0  0
  7  8  1  0  0  0  0
  7 47  1  0  0  0  0
  8  9  1  0  0  0  0
  8 48  1  0  0  0  0
  8 49  1  0  0  0  0
  9 10  2  0  0  0  0
  9 39  1  0  0  0  0
 10 11  1  0  0  0  0
 10 50  1  0  0  0  0
 11 12  2  0  0  0  0
 11 51  1  0  0  0  0
 12 13  1  0  0  0  0
 12 39  1  0  0  0  0
 13 14  1  0  0  0  0
 13 38  2  0  0  0  0
 14 15  2  0  0  0  0
 14 52  1  0  0  0  0
 15 16  1  0  0  0  0
 15 53  1  0  0  0  0
 16 17  1  0  0  0  0
 16 37  2  0  0  0  0
 17 18  2  0  0  0  0
 18 19  1  0  0  0  0
 18 54  1  0  0  0  0
 19 20  2  0  0  0  0
 20 21  1  0  0  0  0
 20 37  1  0  0  0  0
 21 22  1  0  0  0  0
 21 55  1  0  0  0  0
 22 23  1  0  0  0  0
 22 36  2  0  0  0  0
 23 24  2  0  0  0  0
 23 56  1  0  0  0  0
 24 25  1  0  0  0  0
 24 57  1  0  0  0  0
 25 26  1  0  0  0  0
 25 34  2  0  0  0  0
 26 27  1  0  0  0  0
 27 28  1  0  0  0  0
 27 58  1  0  0  0  0
 27 59  1  0  0  0  0
 28 29  1  0  0  0  0
 28 33  2  0  0  0  0
 29 30  2  0  0  0  0
 29 60  1  0  0  0  0
 30 31  1  0  0  0  0
 30 61  1  0  0  0  0
 31 32  2  0  0  0  0
 31 62  1  0  0  0  0
 32 33  1  0  0  0  0
 32 63  1  0  0  0  0
 33 64  1  0  0  0  0
 34 35  1  0  0  0  0
 34 36  1  0  0  0  0
 36 65  1  0  0  0  0
 37 38  1  0  0  0  0
 38 66  1  0  0  0  0
M  END
