
 OpenBabel03132514253D

 66 70  0  0  0  0  0  0  0  0999 V2000
    1.0523    0.0066    0.0850 C   0  0  0  0  0  0  0  0  0  0  0  0
    0.4490    1.1616   -1.1713 S   0  0  0  0  0  0  0  0  0  0  0  0
    0.9591    0.7300   -2.5481 O   0  0  0  0  0  0  0  0  0  0  0  0
   -1.0814    1.1616   -1.1713 O   0  0  0  0  0  0  0  0  0  0  0  0
    1.0523    2.8270   -0.7992 C   0  0  0  0  0  0  0  0  0  0  0  0
    0.5457    3.2557    0.5683 C   0  0  0  0  0  0  0  0  0  0  0  0
    1.0357    2.3177    1.5886 N   0  0  0  0  0  0  0  0  0  0  0  0
    0.5457    2.7322    2.9110 C   0  0  0  0  0  0  0  0  0  0  0  0
   -0.9743    2.7322    2.9110 C   0  0  0  0  0  0  0  0  0  0  0  0
   -1.7180    1.6169    2.9106 C   0  0  0  0  0  0  0  0  0  0  0  0
   -3.0615    2.0664    2.8950 C   0  0  0  0  0  0  0  0  0  0  0  0
   -3.0288    3.4225    2.8898 C   0  0  0  0  0  0  0  0  0  0  0  0
   -4.2521    4.3244    2.8637 C   0  0  0  0  0  0  0  0  0  0  0  0
   -5.1967    4.2521    3.9054 C   0  0  0  0  0  0  0  0  0  0  0  0
   -6.3043    5.0536    3.9020 C   0  0  0  0  0  0  0  0  0  0  0  0
   -6.5015    5.9887    2.8615 C   0  0  0  0  0  0  0  0  0  0  0  0
   -7.5998    6.8102    2.8824 N   0  0  0  0  0  0  0  0  0  0  0  0
   -7.7198    7.6471    1.8888 C   0  0  0  0  0  0  0  0  0  0  0  0
   -6.8746    7.7815    0.8208 N   0  0  0  0  0  0  0  0  0  0  0  0
   -5.8280    6.9928    0.7804 C   0  0  0  0  0  0  0  0  0  0  0  0
   -4.9074    7.0858   -0.3619 N   0  0  0  0  0  0  0  0  0  0  0  0
   -5.1667    8.0531   -1.4379 C   0  0  0  0  0  0  0  0  0  0  0  0
   -5.2174    9.3979   -1.1076 C   0  0  0  0  0  0  0  0  0  0  0  0
   -5.2931   10.3649   -2.1036 C   0  0  0  0  0  0  0  0  0  0  0  0
   -5.3404    9.9811   -3.4398 C   0  0  0  0  0  0  0  0  0  0  0  0
   -5.4080   10.9566   -4.4695 O   0  0  0  0  0  0  0  0  0  0  0  0
   -5.4558   10.5512   -5.8296 C   0  0  0  0  0  0  0  0  0  0  0  0
   -4.2077    9.7506   -6.1638 C   0  0  0  0  0  0  0  0  0  0  0  0
   -4.3069    8.3731   -6.2702 C   0  0  0  0  0  0  0  0  0  0  0  0
   -3.0580    7.7087   -6.2964 C   0  0  0  0  0  0  0  0  0  0  0  0
   -1.9040    8.2935   -6.5618 C   0  0  0  0  0  0  0  0  0  0  0  0
   -1.8877    9.6595   -6.5069 C   0  0  0  0  0  0  0  0  0  0  0  0
   -3.0508   10.3745   -6.3524 C   0  0  0  0  0  0  0  0  0  0  0  0
   -5.3203    8.6313   -3.7487 C   0  0  0  0  0  0  0  0  0  0  0  0
   -5.3969    8.1626   -5.4195 Cl  0  0  0  0  0  0  0  0  0  0  0  0
   -5.2042    7.6525   -2.7729 C   0  0  0  0  0  0  0  0  0  0  0  0
   -5.5576    6.0487    1.8116 C   0  0  0  0  0  0  0  0  0  0  0  0
   -4.4279    5.1994    1.8300 C   0  0  0  0  0  0  0  0  0  0  0  0
   -1.7266    3.8605    2.9115 O   0  0  0  0  0  0  0  0  0  0  0  0
    0.6957   -0.9779   -0.1350 H   0  0  0  0  0  0  0  0  0  0  0  0
    0.6957    0.3084    1.0476 H   0  0  0  0  0  0  0  0  0  0  0  0
    2.1223    0.0066    0.0850 H   0  0  0  0  0  0  0  0  0  0  0  0
    2.1223    2.8270   -0.7992 H   0  0  0  0  0  0  0  0  0  0  0  0
    0.6957    3.5098   -1.5418 H   0  0  0  0  0  0  0  0  0  0  0  0
    0.9023    4.2402    0.7883 H   0  0  0  0  0  0  0  0  0  0  0  0
   -0.5243    3.2557    0.5683 H   0  0  0  0  0  0  0  0  0  0  0  0
    0.6957    1.3791    1.3789 H   0  0  0  0  0  0  0  0  0  0  0  0
    0.9024    2.0494    3.6537 H   0  0  0  0  0  0  0  0  0  0  0  0
    0.9024    3.7168    3.1310 H   0  0  0  0  0  0  0  0  0  0  0  0
   -1.3714    0.6046    2.9200 H   0  0  0  0  0  0  0  0  0  0  0  0
   -3.9373    1.4517    2.8886 H   0  0  0  0  0  0  0  0  0  0  0  0
   -5.0459    3.5620    4.7091 H   0  0  0  0  0  0  0  0  0  0  0  0
   -7.0239    4.9723    4.6897 H   0  0  0  0  0  0  0  0  0  0  0  0
   -8.5692    8.2974    1.9113 H   0  0  0  0  0  0  0  0  0  0  0  0
   -4.0887    6.4791   -0.4078 H   0  0  0  0  0  0  0  0  0  0  0  0
   -5.1983    9.6939   -0.0795 H   0  0  0  0  0  0  0  0  0  0  0  0
   -5.3149   11.4024   -1.8429 H   0  0  0  0  0  0  0  0  0  0  0  0
   -6.3224    9.9447   -5.9908 H   0  0  0  0  0  0  0  0  0  0  0  0
   -5.5037   11.4159   -6.4580 H   0  0  0  0  0  0  0  0  0  0  0  0
   -5.2432    7.8582   -6.3274 H   0  0  0  0  0  0  0  0  0  0  0  0
   -3.0478    6.6595   -6.0867 H   0  0  0  0  0  0  0  0  0  0  0  0
   -1.0288    7.7286   -6.8065 H   0  0  0  0  0  0  0  0  0  0  0  0
   -0.9557   10.1793   -6.5854 H   0  0  0  0  0  0  0  0  0  0  0  0
   -3.0242   11.4437   -6.3845 H   0  0  0  0  0  0  0  0  0  0  0  0
   -5.1450    6.6174   -3.0376 H   0  0  0  0  0  0  0  0  0  0  0  0
   -3.7121    5.2418    1.0358 H   0  0  0  0  0  0  0  0  0  0  0  0
  1  2  1  0  0  0  0
  1 40  1  0  0  0  0
  1 41  1  0  0  0  0
  1 42  1  0  0  0  0
  2  3  2  0  0  0  0
  2  4  2  0  0  0  0
  2  5  1  0  0  0  0
  5  6  1  0  0  0  0
  5 43  1  0  0  0  0
  5 44  1  0  0  0  0
  6  7  1  0  0  0  0
  6 45  1  0  0  0  0
  6 46  1  0  0  0  0
  7  8  1  0  0  0  0
  7 47  1  0  0  0  0
  8  9  1  0  0  0  0
  8 48  1  0  0  0  0
  8 49  1  0  0  0  0
  9 10  2  0  0  0  0
  9 39  1  0  0  0  0
 10 11  1  0  0  0  0
 10 50  1  0  0  0  0
 11 12  2  0  0  0  0
 11 51  1  0  0  0  0
 12 13  1  0  0  0  0
 12 39  1  0  0  0  0
 13 14  1  0  0  0  0
 13 38  2  0  0  0  0
 14 15  2  0  0  0  0
 14 52  1  0  0  0  0
 15 16  1  0  0  0  0
 15 53  1  0  0  0  0
 16 17  1  0  0  0  0
 16 37  2  0  0  0  0
 17 18  2  0  0  0  0
 18 19  1  0  0  0  0
 18 54  1  0  0  0  0
 19 20  2  0  0  0  0
 20 21  1  0  0  0  0
 20 37  1  0  0  0  0
 21 22  1  0  0  0  0
 21 55  1  0  0  0  0
 22 23  1  0  0  0  0
 22 36  2  0  0  0  0
 23 24  2  0  0  0  0
 23 56  1  0  0  0  0
 24 25  1  0  0  0  0
 24 57  1  0  0  0  0
 25 26  1  0  0  0  0
 25 34  2  0  0  0  0
 26 27  1  0  0  0  0
 27 28  1  0  0  0  0
 27 58  1  0  0  0  0
 27 59  1  0  0  0  0
 28 29  1  0  0  0  0
 28 33  2  0  0  0  0
 29 30  2  0  0  0  0
 29 60  1  0  0  0  0
 30 31  1  0  0  0  0
 30 61  1  0  0  0  0
 31 32  2  0  0  0  0
 31 62  1  0  0  0  0
 32 33  1  0  0  0  0
 32 63  1  0  0  0  0
 33 64  1  0  0  0  0
 34 35  1  0  0  0  0
 34 36  1  0  0  0  0
 36 65  1  0  0  0  0
 37 38  1  0  0  0  0
 38 66  1  0  0  0  0
M  END
