REMARK  Name = 
REMARK  6 active torsions:
REMARK  status: ('A' for Active; 'I' for Inactive)
REMARK    1  A    between atoms: C_1  and  O_2
REMARK    2  A    between atoms: O_2  and  C_3
REMARK    3  A    between atoms: C_5  and  C_6
REMARK    4  A    between atoms: N_7  and  N_8
REMARK    5  A    between atoms: N_8  and  C_9
REMARK    6  A    between atoms: C_20  and  O_21
REMARK                            x       y       z     vdW  Elec       q    Type
REMARK                         _______ _______ _______ _____ _____    ______ ____
ROOT
ATOM      1  C   UNL     1       0.213  -4.350   4.288  0.00  0.00    +0.000 C 
ATOM      2  N   UNL     1      -0.265  -3.556   5.221  0.00  0.00    +0.000 NA
ENDROOT
BRANCH   1   5
ATOM      3  C   UNL     1       0.798  -1.915   1.458  0.00  0.00    +0.000 A 
ATOM      4  C   UNL     1       0.461  -2.430   2.687  0.00  0.00    +0.000 A 
ATOM      5  C   UNL     1       0.607  -3.781   2.934  0.00  0.00    +0.000 A 
ATOM      6  C   UNL     1       1.106  -4.614   1.962  0.00  0.00    +0.000 A 
ATOM      7  C   UNL     1       1.476  -4.104   0.737  0.00  0.00    +0.000 A 
ATOM      8  C   UNL     1       1.341  -2.741   0.453  0.00  0.00    +0.000 A 
BRANCH   3  10
ATOM      9  C   UNL     1       1.082  -0.019   0.053  0.00  0.00    +0.000 C 
ATOM     10  O   UNL     1       0.609  -0.590   1.264  0.00  0.00    +0.000 OA
ENDBRANCH   3  10
BRANCH   8  11
ATOM     11  O   UNL     1       1.737  -2.208  -0.803  0.00  0.00    +0.000 OA
ATOM     12  H   UNL     1       1.632  -1.231  -0.987  0.00  0.00    +0.000 HD
ENDBRANCH   8  11
ENDBRANCH   1   5
BRANCH   2  13
ATOM     13  N   UNL     1      -0.414  -2.167   4.964  0.00  0.00    +0.000 N 
ATOM     14  H   UNL     1      -0.785  -1.551   5.687  0.00  0.00    +0.000 HD
BRANCH  13  15
ATOM     15  C   UNL     1      -0.034  -1.617   3.655  0.00  0.00    +0.000 A 
ATOM     16  N   UNL     1      -0.385  -2.227   2.538  0.00  0.00    +0.000 NA
ATOM     17  C   UNL     1      -0.116  -1.592   1.366  0.00  0.00    +0.000 A 
ATOM     18  N   UNL     1       0.443  -0.405   1.176  0.00  0.00    +0.000 NA
ATOM     19  C   UNL     1       0.768   0.184   2.338  0.00  0.00    +0.000 A 
ATOM     20  N   UNL     1       1.322   1.409   2.487  0.00  0.00    +0.000 N 
ATOM     21  N   UNL     1       1.517   1.694   3.813  0.00  0.00    +0.000 NA
ATOM     22  C   UNL     1       1.099   0.651   4.468  0.00  0.00    +0.000 A 
ATOM     23  C   UNL     1       0.591  -0.358   3.612  0.00  0.00    +0.000 A 
ATOM     24  H   UNL     1       1.562   2.034   1.718  0.00  0.00    +0.000 HD
ENDBRANCH  13  15
ENDBRANCH   2  13
TORSDOF 5
