REMARK  Name = 
REMARK  11 active torsions:
REMARK  status: ('A' for Active; 'I' for Inactive)
REMARK    1  A    between atoms: C_1  and  S_2
REMARK    2  A    between atoms: S_2  and  C_5
REMARK    3  A    between atoms: C_5  and  C_6
REMARK    4  A    between atoms: C_6  and  N_7
REMARK    5  A    between atoms: N_7  and  C_8
REMARK    6  A    between atoms: C_8  and  C_9
REMARK    7  A    between atoms: C_12  and  C_13
REMARK    8  A    between atoms: N_21  and  C_22
REMARK    9  A    between atoms: C_25  and  O_26
REMARK   10  A    between atoms: O_26  and  C_27
REMARK   11  A    between atoms: C_27  and  C_28
REMARK                            x       y       z     vdW  Elec       q    Type
REMARK                         _______ _______ _______ _____ _____    ______ ____
ROOT
ATOM      1  C   UNL     1      -4.374   0.305   3.594  0.00  0.00    +0.000 A 
ATOM      2  C   UNL     1      -5.319   0.232   4.636  0.00  0.00    +0.000 A 
ATOM      3  C   UNL     1      -6.426   1.034   4.633  0.00  0.00    +0.000 A 
ATOM      4  C   UNL     1      -6.623   1.970   3.594  0.00  0.00    +0.000 A 
ATOM      5  N   UNL     1      -7.721   2.792   3.616  0.00  0.00    +0.000 NA
ATOM      6  C   UNL     1      -7.841   3.630   2.623  0.00  0.00    +0.000 A 
ATOM      7  N   UNL     1      -6.996   3.765   1.555  0.00  0.00    +0.000 NA
ATOM      8  C   UNL     1      -5.950   2.976   1.514  0.00  0.00    +0.000 A 
ATOM      9  N   UNL     1      -5.029   3.070   0.372  0.00  0.00    +0.000 N 
ATOM     10  C   UNL     1      -5.679   2.031   2.544  0.00  0.00    +0.000 A 
ATOM     11  C   UNL     1      -4.550   1.182   2.562  0.00  0.00    +0.000 A 
ATOM     12  H   UNL     1      -4.211   2.464   0.325  0.00  0.00    +0.000 HD
ENDROOT
BRANCH   9  13
ATOM     13  C   UNL     1      -5.288   4.039  -0.703  0.00  0.00    +0.000 A 
ATOM     14  C   UNL     1      -5.339   5.383  -0.371  0.00  0.00    +0.000 A 
ATOM     15  C   UNL     1      -5.414   6.351  -1.367  0.00  0.00    +0.000 A 
ATOM     16  C   UNL     1      -5.462   5.969  -2.703  0.00  0.00    +0.000 A 
ATOM     17  C   UNL     1      -5.442   4.620  -3.014  0.00  0.00    +0.000 A 
ATOM     18 CL   UNL     1      -5.519   4.153  -4.685  0.00  0.00    +0.000 Cl
ATOM     19  C   UNL     1      -5.326   3.640  -2.039  0.00  0.00    +0.000 A 
BRANCH  16  20
ATOM     20  O   UNL     1      -5.529   6.946  -3.732  0.00  0.00    +0.000 OA
BRANCH  20  21
ATOM     21  C   UNL     1      -5.577   6.542  -5.092  0.00  0.00    +0.000 C 
BRANCH  21  22
ATOM     22  C   UNL     1      -4.329   5.741  -5.427  0.00  0.00    +0.000 A 
ATOM     23  C   UNL     1      -4.428   4.364  -5.534  0.00  0.00    +0.000 A 
ATOM     24  C   UNL     1      -3.179   3.699  -5.561  0.00  0.00    +0.000 A 
ATOM     25  C   UNL     1      -2.026   4.284  -5.827  0.00  0.00    +0.000 A 
ATOM     26  C   UNL     1      -2.010   5.650  -5.772  0.00  0.00    +0.000 A 
ATOM     27  C   UNL     1      -3.173   6.365  -5.617  0.00  0.00    +0.000 A 
ENDBRANCH  21  22
ENDBRANCH  20  21
ENDBRANCH  16  20
ENDBRANCH   9  13
BRANCH   1  31
ATOM     28  C   UNL     1      -1.096  -1.287   3.640  0.00  0.00    +0.000 A 
ATOM     29  C   UNL     1      -1.840  -2.402   3.639  0.00  0.00    +0.000 A 
ATOM     30  C   UNL     1      -3.184  -1.952   3.624  0.00  0.00    +0.000 A 
ATOM     31  C   UNL     1      -3.151  -0.596   3.620  0.00  0.00    +0.000 A 
ATOM     32  O   UNL     1      -1.849  -0.158   3.642  0.00  0.00    +0.000 OA
BRANCH  28  33
ATOM     33  C   UNL     1       0.424  -1.287   3.640  0.00  0.00    +0.000 C 
BRANCH  33  34
ATOM     34  N   UNL     1       0.914  -0.297   2.670  0.00  0.00    +0.000 NA
ATOM     35  H   UNL     1       0.574  -0.536   1.739  0.00  0.00    +0.000 HD
BRANCH  34  36
ATOM     36  C   UNL     1       0.424   1.038   3.043  0.00  0.00    +0.000 C 
BRANCH  36  37
ATOM     37  C   UNL     1       0.930   2.062   2.040  0.00  0.00    +0.000 C 
BRANCH  37  39
ATOM     38  C   UNL     1       0.930  -0.006  -0.071  0.00  0.00    +0.000 C 
ATOM     39  S   UNL     1       0.327   1.637   0.387  0.00  0.00    +0.000 S 
ATOM     40  O   UNL     1       0.837   2.668  -0.623  0.00  0.00    +0.000 OA
ATOM     41  O   UNL     1      -1.204   1.637   0.387  0.00  0.00    +0.000 OA
ENDBRANCH  37  39
ENDBRANCH  36  37
ENDBRANCH  34  36
ENDBRANCH  33  34
ENDBRANCH  28  33
ENDBRANCH   1  31
TORSDOF 10
