REMARK  Name = 
REMARK  6 active torsions:
REMARK  status: ('A' for Active; 'I' for Inactive)
REMARK    1  A    between atoms: C_1  and  O_2
REMARK    2  A    between atoms: O_2  and  C_3
REMARK    3  A    between atoms: C_5  and  C_6
REMARK    4  A    between atoms: N_7  and  N_8
REMARK    5  A    between atoms: N_8  and  C_9
REMARK    6  A    between atoms: C_20  and  O_21
REMARK                            x       y       z     vdW  Elec       q    Type
REMARK                         _______ _______ _______ _____ _____    ______ ____
ROOT
ATOM      1  C   UNL     1       0.585  -5.846  -1.970  0.00  0.00    +0.000 C 
ATOM      2  N   UNL     1      -0.054  -5.599  -3.092  0.00  0.00    +0.000 NA
ENDROOT
BRANCH   1   5
ATOM      3  C   UNL     1       0.839  -2.385  -0.474  0.00  0.00    +0.000 A 
ATOM      4  C   UNL     1       0.531  -3.418  -1.327  0.00  0.00    +0.000 A 
ATOM      5  C   UNL     1       0.910  -4.710  -1.014  0.00  0.00    +0.000 A 
ATOM      6  C   UNL     1       1.578  -4.971   0.158  0.00  0.00    +0.000 A 
ATOM      7  C   UNL     1       1.865  -3.948   1.034  0.00  0.00    +0.000 A 
ATOM      8  C   UNL     1       1.497  -2.629   0.749  0.00  0.00    +0.000 A 
BRANCH   3  10
ATOM      9  C   UNL     1       0.941  -0.072  -0.035  0.00  0.00    +0.000 C 
ATOM     10  O   UNL     1       0.467  -1.139  -0.845  0.00  0.00    +0.000 OA
ENDBRANCH   3  10
BRANCH   8  11
ATOM     11  O   UNL     1       1.776  -1.574   1.658  0.00  0.00    +0.000 OA
ATOM     12  H   UNL     1       1.505  -0.638   1.435  0.00  0.00    +0.000 HD
ENDBRANCH   8  11
ENDBRANCH   1   5
BRANCH   2  13
ATOM     13  N   UNL     1      -0.442  -4.270  -3.411  0.00  0.00    +0.000 N 
ATOM     14  H   UNL     1      -0.938  -4.079  -4.282  0.00  0.00    +0.000 HD
BRANCH  13  15
ATOM     15  C   UNL     1      -0.128  -3.171  -2.487  0.00  0.00    +0.000 A 
ATOM     16  N   UNL     1       1.058  -3.044  -1.920  0.00  0.00    +0.000 NA
ATOM     17  C   UNL     1       1.192  -2.096  -0.954  0.00  0.00    +0.000 A 
ATOM     18  N   UNL     1       0.286  -1.240  -0.502  0.00  0.00    +0.000 NA
ATOM     19  C   UNL     1      -0.897  -1.395  -1.117  0.00  0.00    +0.000 A 
ATOM     20  N   UNL     1      -2.011  -0.658  -0.907  0.00  0.00    +0.000 N 
ATOM     21  N   UNL     1      -3.035  -1.089  -1.709  0.00  0.00    +0.000 NA
ATOM     22  C   UNL     1      -2.557  -2.085  -2.394  0.00  0.00    +0.000 A 
ATOM     23  C   UNL     1      -1.196  -2.346  -2.095  0.00  0.00    +0.000 A 
ATOM     24  H   UNL     1      -2.080   0.112  -0.242  0.00  0.00    +0.000 HD
ENDBRANCH  13  15
ENDBRANCH   2  13
TORSDOF 5
