REMARK  Name = 
REMARK  12 active torsions:
REMARK  status: ('A' for Active; 'I' for Inactive)
REMARK    1  A    between atoms: C_1  and  S_2
REMARK    2  A    between atoms: S_2  and  C_5
REMARK    3  A    between atoms: C_5  and  C_6
REMARK    4  A    between atoms: C_6  and  N_7
REMARK    5  A    between atoms: N_7  and  C_8
REMARK    6  A    between atoms: C_8  and  C_9
REMARK    7  A    between atoms: C_12  and  C_13
REMARK    8  A    between atoms: N_21  and  C_22
REMARK    9  A    between atoms: C_25  and  O_26
REMARK   10  A    between atoms: O_26  and  C_27
REMARK   11  A    between atoms: C_27  and  C_28
REMARK   12  A    between atoms: C_34  and  C_35
REMARK                            x       y       z     vdW  Elec       q    Type
REMARK                         _______ _______ _______ _____ _____    ______ ____
ROOT
ATOM      1  C   UNL     1      -4.301   1.290   3.902  0.00  0.00    +0.000 A 
ATOM      2  C   UNL     1      -5.246   1.217   4.944  0.00  0.00    +0.000 A 
ATOM      3  C   UNL     1      -6.354   2.018   4.941  0.00  0.00    +0.000 A 
ATOM      4  C   UNL     1      -6.551   2.955   3.901  0.00  0.00    +0.000 A 
ATOM      5  N   UNL     1      -7.649   3.776   3.923  0.00  0.00    +0.000 NA
ATOM      6  C   UNL     1      -7.769   4.614   2.930  0.00  0.00    +0.000 A 
ATOM      7  N   UNL     1      -6.923   4.750   1.863  0.00  0.00    +0.000 NA
ATOM      8  C   UNL     1      -5.877   3.961   1.821  0.00  0.00    +0.000 A 
ATOM      9  N   UNL     1      -4.956   4.055   0.679  0.00  0.00    +0.000 N 
ATOM     10  C   UNL     1      -5.607   3.016   2.852  0.00  0.00    +0.000 A 
ATOM     11  C   UNL     1      -4.477   2.166   2.869  0.00  0.00    +0.000 A 
ATOM     12  H   UNL     1      -4.138   3.448   0.632  0.00  0.00    +0.000 HD
ENDROOT
BRANCH   9  13
ATOM     13  C   UNL     1      -5.216   5.024  -0.396  0.00  0.00    +0.000 A 
ATOM     14  C   UNL     1      -5.510   4.474  -1.633  0.00  0.00    +0.000 A 
ATOM     15  C   UNL     1      -5.590   5.425  -2.678  0.00  0.00    +0.000 A 
ATOM     16  C   UNL     1      -5.740   6.725  -2.498  0.00  0.00    +0.000 A 
ATOM     17  C   UNL     1      -5.501   7.196  -1.237  0.00  0.00    +0.000 A 
ATOM     18  C   UNL     1      -5.285   6.333  -0.190  0.00  0.00    +0.000 A 
BRANCH  17  19
ATOM     19  C   UNL     1      -5.473   8.696  -0.991  0.00  0.00    +0.000 C 
ATOM     20  F   UNL     1      -4.519   9.249  -1.734  0.00  0.00    +0.000 F 
ATOM     21  F   UNL     1      -6.651   9.220  -1.318  0.00  0.00    +0.000 F 
ATOM     22  F   UNL     1      -5.226   8.929   0.295  0.00  0.00    +0.000 F 
ENDBRANCH  17  19
BRANCH  16  23
ATOM     23  O   UNL     1      -6.130   7.586  -3.557  0.00  0.00    +0.000 OA
BRANCH  23  24
ATOM     24  C   UNL     1      -6.280   8.979  -3.321  0.00  0.00    +0.000 C 
BRANCH  24  25
ATOM     25  C   UNL     1      -7.344   9.200  -2.258  0.00  0.00    +0.000 A 
ATOM     26  C   UNL     1      -7.683  10.494  -1.899  0.00  0.00    +0.000 A 
ATOM     27  C   UNL     1      -8.441  10.578  -0.707  0.00  0.00    +0.000 A 
ATOM     28  C   UNL     1      -9.090   9.566  -0.159  0.00  0.00    +0.000 A 
ATOM     29  C   UNL     1      -8.757   8.318  -0.605  0.00  0.00    +0.000 A 
ATOM     30  C   UNL     1      -7.920   8.152  -1.682  0.00  0.00    +0.000 A 
ENDBRANCH  24  25
ENDBRANCH  23  24
ENDBRANCH  16  23
ENDBRANCH   9  13
BRANCH   1  34
ATOM     31  C   UNL     1      -1.024  -0.302   3.948  0.00  0.00    +0.000 A 
ATOM     32  C   UNL     1      -1.767  -1.417   3.946  0.00  0.00    +0.000 A 
ATOM     33  C   UNL     1      -3.111  -0.968   3.931  0.00  0.00    +0.000 A 
ATOM     34  C   UNL     1      -3.078   0.388   3.927  0.00  0.00    +0.000 A 
ATOM     35  O   UNL     1      -1.776   0.826   3.949  0.00  0.00    +0.000 OA
BRANCH  31  36
ATOM     36  C   UNL     1       0.496  -0.302   3.948  0.00  0.00    +0.000 C 
BRANCH  36  37
ATOM     37  N   UNL     1       0.986   0.382   2.742  0.00  0.00    +0.000 NA
ATOM     38  H   UNL     1       0.646  -0.105   1.913  0.00  0.00    +0.000 HD
BRANCH  37  39
ATOM     39  C   UNL     1       0.496   1.768   2.732  0.00  0.00    +0.000 C 
BRANCH  39  40
ATOM     40  C   UNL     1       1.003   2.475   1.485  0.00  0.00    +0.000 C 
BRANCH  40  42
ATOM     41  C   UNL     1       1.003  -0.096   0.027  0.00  0.00    +0.000 C 
ATOM     42  S   UNL     1       0.400   1.610   0.014  0.00  0.00    +0.000 S 
ATOM     43  O   UNL     1       0.910   2.322  -1.241  0.00  0.00    +0.000 OA
ATOM     44  O   UNL     1      -1.131   1.610   0.014  0.00  0.00    +0.000 OA
ENDBRANCH  40  42
ENDBRANCH  39  40
ENDBRANCH  37  39
ENDBRANCH  36  37
ENDBRANCH  31  36
ENDBRANCH   1  34
TORSDOF 11
