REMARK  Name = 
REMARK  7 active torsions:
REMARK  status: ('A' for Active; 'I' for Inactive)
REMARK    1  A    between atoms: C_2  and  C_4
REMARK    2  A    between atoms: C_8  and  C_9
REMARK    3  A    between atoms: N_14  and  C_15
REMARK    4  A    between atoms: C_15  and  C_16
REMARK    5  A    between atoms: C_16  and  C_17
REMARK    6  A    between atoms: C_17  and  O_18
REMARK    7  A    between atoms: C_20  and  C_21
REMARK                            x       y       z     vdW  Elec       q    Type
REMARK                         _______ _______ _______ _____ _____    ______ ____
ROOT
ATOM      1  C   UNL     1       1.061   2.087  -1.627  0.00  0.00    +0.000 A 
ATOM      2  C   UNL     1       2.105   1.588  -2.341  0.00  0.00    +0.000 A 
ATOM      3  C   UNL     1       2.927   2.392  -3.051  0.00  0.00    +0.000 A 
ATOM      4  C   UNL     1       2.718   3.773  -3.050  0.00  0.00    +0.000 A 
ATOM      5  C   UNL     1       3.326   4.824  -3.621  0.00  0.00    +0.000 A 
ATOM      6  C   UNL     1       2.684   5.919  -3.267  0.00  0.00    +0.000 A 
ATOM      7  N   UNL     1       1.665   5.622  -2.473  0.00  0.00    +0.000 NA
ATOM      8  N   UNL     1       1.631   4.302  -2.299  0.00  0.00    +0.000 N 
ATOM      9  C   UNL     1       0.804   3.412  -1.582  0.00  0.00    +0.000 A 
ENDROOT
BRANCH   5  10
ATOM     10  C   UNL     1       4.548   4.763  -4.523  0.00  0.00    +0.000 A 
ATOM     11  C   UNL     1       5.723   5.422  -4.178  0.00  0.00    +0.000 A 
ATOM     12  C   UNL     1       6.916   4.931  -4.754  0.00  0.00    +0.000 A 
ATOM     13  N   UNL     1       6.818   4.446  -6.057  0.00  0.00    +0.000 NA
ATOM     14  C   UNL     1       5.643   4.037  -6.486  0.00  0.00    +0.000 A 
ATOM     15  N   UNL     1       5.507   3.525  -7.857  0.00  0.00    +0.000 N 
ATOM     16  N   UNL     1       4.520   4.085  -5.651  0.00  0.00    +0.000 NA
ATOM     17  H   UNL     1       4.599   3.207  -8.195  0.00  0.00    +0.000 HD
BRANCH  15  18
ATOM     18  C   UNL     1       6.680   3.471  -8.741  0.00  0.00    +0.000 C 
BRANCH  18  19
ATOM     19  C   UNL     1       6.929   2.033  -9.165  0.00  0.00    +0.000 C 
BRANCH  19  20
ATOM     20  C   UNL     1       5.712   1.505  -9.906  0.00  0.00    +0.000 C 
BRANCH  20  21
ATOM     21  O   UNL     1       5.475   2.303 -11.056  0.00  0.00    +0.000 OA
ATOM     22  H   UNL     1       5.311   3.249 -10.777  0.00  0.00    +0.000 HD
ENDBRANCH  20  21
ENDBRANCH  19  20
ENDBRANCH  18  19
ENDBRANCH  15  18
ENDBRANCH   5  10
BRANCH   6  23
ATOM     23  C   UNL     1       3.059   7.324  -3.707  0.00  0.00    +0.000 A 
ATOM     24  C   UNL     1       3.068   7.648  -5.093  0.00  0.00    +0.000 A 
ATOM     25  C   UNL     1       3.769   8.783  -5.531  0.00  0.00    +0.000 A 
ATOM     26  C   UNL     1       4.171   9.672  -4.670  0.00  0.00    +0.000 A 
ATOM     27  F   UNL     1       4.844  10.741  -5.086  0.00  0.00    +0.000 F 
ATOM     28  C   UNL     1       3.895   9.505  -3.307  0.00  0.00    +0.000 A 
ATOM     29  C   UNL     1       3.467   8.242  -2.829  0.00  0.00    +0.000 A 
ENDBRANCH   6  23
BRANCH   1  31
ATOM     30  N   UNL     1       1.036   0.090   0.022  0.00  0.00    +0.000 N 
ATOM     31  C   UNL     1       0.301   1.072  -0.788  0.00  0.00    +0.000 C 
ATOM     32  O   UNL     1      -0.970   1.072  -0.788  0.00  0.00    +0.000 OA
ATOM     33  H   UNL     1       0.526  -0.591   0.585  0.00  0.00    +0.000 HD
ATOM     34  H   UNL     1       2.056   0.090   0.022  0.00  0.00    +0.000 HD
ENDBRANCH   1  31
TORSDOF 7
