
 OpenBabel03132512093D

 49 52  0  0  0  0  0  0  0  0999 V2000
    1.0364    0.0904    0.0222 N   0  0  0  0  0  0  0  0  0  0  0  0
    0.3014    1.0720   -0.7884 C   0  0  0  0  0  0  0  0  0  0  0  0
   -0.9695    1.0720   -0.7884 O   0  0  0  0  0  0  0  0  0  0  0  0
    1.0614    2.0870   -1.6266 C   0  0  0  0  0  0  0  0  0  0  0  0
    2.1046    1.5884   -2.3409 C   0  0  0  0  0  0  0  0  0  0  0  0
    2.9273    2.3922   -3.0510 C   0  0  0  0  0  0  0  0  0  0  0  0
    2.7177    3.7726   -3.0501 C   0  0  0  0  0  0  0  0  0  0  0  0
    3.3263    4.8244   -3.6214 C   0  0  0  0  0  0  0  0  0  0  0  0
    4.5482    4.7628   -4.5234 C   0  0  0  0  0  0  0  0  0  0  0  0
    5.7229    5.4220   -4.1778 C   0  0  0  0  0  0  0  0  0  0  0  0
    6.9156    4.9307   -4.7540 C   0  0  0  0  0  0  0  0  0  0  0  0
    6.8180    4.4462   -6.0572 N   0  0  0  0  0  0  0  0  0  0  0  0
    5.6425    4.0375   -6.4855 C   0  0  0  0  0  0  0  0  0  0  0  0
    5.5068    3.5250   -7.8566 N   0  0  0  0  0  0  0  0  0  0  0  0
    6.6801    3.4713   -8.7406 C   0  0  0  0  0  0  0  0  0  0  0  0
    6.9295    2.0331   -9.1647 C   0  0  0  0  0  0  0  0  0  0  0  0
    5.7121    1.5050   -9.9059 C   0  0  0  0  0  0  0  0  0  0  0  0
    5.4751    2.3033  -11.0561 O   0  0  0  0  0  0  0  0  0  0  0  0
    4.5204    4.0851   -5.6509 N   0  0  0  0  0  0  0  0  0  0  0  0
    2.6841    5.9187   -3.2671 C   0  0  0  0  0  0  0  0  0  0  0  0
    3.0593    7.3244   -3.7071 C   0  0  0  0  0  0  0  0  0  0  0  0
    3.0676    7.6481   -5.0925 C   0  0  0  0  0  0  0  0  0  0  0  0
    3.7695    8.7831   -5.5307 C   0  0  0  0  0  0  0  0  0  0  0  0
    4.1709    9.6721   -4.6705 C   0  0  0  0  0  0  0  0  0  0  0  0
    4.8442   10.7413   -5.0856 F   0  0  0  0  0  0  0  0  0  0  0  0
    3.8950    9.5050   -3.3069 C   0  0  0  0  0  0  0  0  0  0  0  0
    3.4672    8.2423   -2.8292 C   0  0  0  0  0  0  0  0  0  0  0  0
    1.6654    5.6224   -2.4734 N   0  0  0  0  0  0  0  0  0  0  0  0
    1.6308    4.3022   -2.2993 N   0  0  0  0  0  0  0  0  0  0  0  0
    0.8038    3.4122   -1.5824 C   0  0  0  0  0  0  0  0  0  0  0  0
    0.5264   -0.5907    0.5847 H   0  0  0  0  0  0  0  0  0  0  0  0
    2.0564    0.0904    0.0222 H   0  0  0  0  0  0  0  0  0  0  0  0
    2.2792    0.5328   -2.3411 H   0  0  0  0  0  0  0  0  0  0  0  0
    3.7361    1.9722   -3.6118 H   0  0  0  0  0  0  0  0  0  0  0  0
    5.7234    6.2580   -3.5100 H   0  0  0  0  0  0  0  0  0  0  0  0
    7.8426    4.9305   -4.2195 H   0  0  0  0  0  0  0  0  0  0  0  0
    4.5986    3.2068   -8.1946 H   0  0  0  0  0  0  0  0  0  0  0  0
    6.5015    4.0728   -9.6073 H   0  0  0  0  0  0  0  0  0  0  0  0
    7.5371    3.8430   -8.2189 H   0  0  0  0  0  0  0  0  0  0  0  0
    7.7835    1.9939   -9.8081 H   0  0  0  0  0  0  0  0  0  0  0  0
    7.1081    1.4315   -8.2980 H   0  0  0  0  0  0  0  0  0  0  0  0
    5.8876    0.4926  -10.2044 H   0  0  0  0  0  0  0  0  0  0  0  0
    4.8580    1.5441   -9.2624 H   0  0  0  0  0  0  0  0  0  0  0  0
    5.3110    3.2495  -10.7771 H   0  0  0  0  0  0  0  0  0  0  0  0
    2.5442    7.0327   -5.7941 H   0  0  0  0  0  0  0  0  0  0  0  0
    3.9739    8.9163   -6.5725 H   0  0  0  0  0  0  0  0  0  0  0  0
    4.0068   10.3265   -2.6306 H   0  0  0  0  0  0  0  0  0  0  0  0
    3.4711    8.0280   -1.7809 H   0  0  0  0  0  0  0  0  0  0  0  0
   -0.0198    3.7834   -1.0090 H   0  0  0  0  0  0  0  0  0  0  0  0
  1  2  1  0  0  0  0
  1 31  1  0  0  0  0
  1 32  1  0  0  0  0
  2  3  2  0  0  0  0
  2  4  1  0  0  0  0
  4  5  1  0  0  0  0
  4 30  2  0  0  0  0
  5  6  2  0  0  0  0
  5 33  1  0  0  0  0
  6  7  1  0  0  0  0
  6 34  1  0  0  0  0
  7  8  2  0  0  0  0
  7 29  1  0  0  0  0
  8  9  1  0  0  0  0
  8 20  1  0  0  0  0
  9 10  1  0  0  0  0
  9 19  2  0  0  0  0
 10 11  2  0  0  0  0
 10 35  1  0  0  0  0
 11 12  1  0  0  0  0
 11 36  1  0  0  0  0
 12 13  2  0  0  0  0
 13 14  1  0  0  0  0
 13 19  1  0  0  0  0
 14 15  1  0  0  0  0
 14 37  1  0  0  0  0
 15 16  1  0  0  0  0
 15 38  1  0  0  0  0
 15 39  1  0  0  0  0
 16 17  1  0  0  0  0
 16 40  1  0  0  0  0
 16 41  1  0  0  0  0
 17 18  1  0  0  0  0
 17 42  1  0  0  0  0
 17 43  1  0  0  0  0
 18 44  1  0  0  0  0
 20 21  1  0  0  0  0
 20 28  2  0  0  0  0
 21 22  1  0  0  0  0
 21 27  2  0  0  0  0
 22 23  2  0  0  0  0
 22 45  1  0  0  0  0
 23 24  1  0  0  0  0
 23 46  1  0  0  0  0
 24 25  1  0  0  0  0
 24 26  2  0  0  0  0
 26 27  1  0  0  0  0
 26 47  1  0  0  0  0
 27 48  1  0  0  0  0
 28 29  1  0  0  0  0
 29 30  1  0  0  0  0
 30 49  1  0  0  0  0
M  END
