
 OpenBabel03132512093D

 66 70  0  0  0  0  0  0  0  0999 V2000
    1.0027   -0.0482   -0.0876 C   0  0  0  0  0  0  0  0  0  0  0  0
    0.3994    1.6120    0.3074 S   0  0  0  0  0  0  0  0  0  0  0  0
    0.9095    2.6030   -0.7414 O   0  0  0  0  0  0  0  0  0  0  0  0
   -1.1311    1.6120    0.3074 O   0  0  0  0  0  0  0  0  0  0  0  0
    1.0027    2.1000    1.9426 C   0  0  0  0  0  0  0  0  0  0  0  0
    0.4961    1.1157    2.9841 C   0  0  0  0  0  0  0  0  0  0  0  0
    0.9861   -0.2326    2.6634 N   0  0  0  0  0  0  0  0  0  0  0  0
    0.4961   -1.1845    3.6706 C   0  0  0  0  0  0  0  0  0  0  0  0
   -1.0239   -1.1845    3.6707 C   0  0  0  0  0  0  0  0  0  0  0  0
   -1.7676   -2.2999    3.6692 C   0  0  0  0  0  0  0  0  0  0  0  0
   -3.1112   -1.8504    3.6541 C   0  0  0  0  0  0  0  0  0  0  0  0
   -3.0784   -0.4942    3.6500 C   0  0  0  0  0  0  0  0  0  0  0  0
   -4.3017    0.4077    3.6247 C   0  0  0  0  0  0  0  0  0  0  0  0
   -5.2463    0.3345    4.6664 C   0  0  0  0  0  0  0  0  0  0  0  0
   -6.3538    1.1360    4.6638 C   0  0  0  0  0  0  0  0  0  0  0  0
   -6.5509    2.0723    3.6243 C   0  0  0  0  0  0  0  0  0  0  0  0
   -7.6490    2.8940    3.6461 N   0  0  0  0  0  0  0  0  0  0  0  0
   -7.7690    3.7319    2.6534 C   0  0  0  0  0  0  0  0  0  0  0  0
   -6.9237    3.8673    1.5855 N   0  0  0  0  0  0  0  0  0  0  0  0
   -5.8772    3.0785    1.5443 C   0  0  0  0  0  0  0  0  0  0  0  0
   -4.9567    3.1725    0.4021 N   0  0  0  0  0  0  0  0  0  0  0  0
   -5.2158    4.1410   -0.6730 C   0  0  0  0  0  0  0  0  0  0  0  0
   -5.2812    5.5079   -0.4180 C   0  0  0  0  0  0  0  0  0  0  0  0
   -5.7168    6.3627   -1.4011 C   0  0  0  0  0  0  0  0  0  0  0  0
   -6.0625    5.8856   -2.6480 C   0  0  0  0  0  0  0  0  0  0  0  0
   -6.5028    6.7778   -3.6611 O   0  0  0  0  0  0  0  0  0  0  0  0
   -6.8569    6.2783   -4.9423 C   0  0  0  0  0  0  0  0  0  0  0  0
   -5.6578    5.5806   -5.5632 C   0  0  0  0  0  0  0  0  0  0  0  0
   -5.7188    4.2067   -5.7290 C   0  0  0  0  0  0  0  0  0  0  0  0
   -4.4781    3.6140   -6.0629 C   0  0  0  0  0  0  0  0  0  0  0  0
   -3.4356    4.2736   -6.5341 C   0  0  0  0  0  0  0  0  0  0  0  0
   -3.4662    5.6341   -6.4016 C   0  0  0  0  0  0  0  0  0  0  0  0
   -4.5974    6.2756   -5.9579 C   0  0  0  0  0  0  0  0  0  0  0  0
   -5.9791    4.5801   -2.8914 C   0  0  0  0  0  0  0  0  0  0  0  0
   -6.4142    3.9020   -4.6069 Br  0  0  0  0  0  0  0  0  0  0  0  0
   -5.5578    3.6692   -1.9361 C   0  0  0  0  0  0  0  0  0  0  0  0
   -5.6070    2.1332    2.5744 C   0  0  0  0  0  0  0  0  0  0  0  0
   -4.4774    1.2837    2.5919 C   0  0  0  0  0  0  0  0  0  0  0  0
   -1.7763   -0.0563    3.6721 O   0  0  0  0  0  0  0  0  0  0  0  0
    0.6461   -0.3367   -1.0542 H   0  0  0  0  0  0  0  0  0  0  0  0
    0.6461   -0.7411    0.6456 H   0  0  0  0  0  0  0  0  0  0  0  0
    2.0727   -0.0482   -0.0876 H   0  0  0  0  0  0  0  0  0  0  0  0
    2.0727    2.1000    1.9426 H   0  0  0  0  0  0  0  0  0  0  0  0
    0.6461    3.0814    2.1760 H   0  0  0  0  0  0  0  0  0  0  0  0
    0.8527    1.4042    3.9508 H   0  0  0  0  0  0  0  0  0  0  0  0
   -0.5739    1.1157    2.9841 H   0  0  0  0  0  0  0  0  0  0  0  0
    0.6461   -0.5076    1.7419 H   0  0  0  0  0  0  0  0  0  0  0  0
    0.8527   -2.1660    3.4372 H   0  0  0  0  0  0  0  0  0  0  0  0
    0.8527   -0.8960    4.6373 H   0  0  0  0  0  0  0  0  0  0  0  0
   -1.4210   -3.3121    3.6777 H   0  0  0  0  0  0  0  0  0  0  0  0
   -3.9870   -2.4651    3.6471 H   0  0  0  0  0  0  0  0  0  0  0  0
   -5.0956   -0.3566    5.4693 H   0  0  0  0  0  0  0  0  0  0  0  0
   -7.0734    1.0541    5.4514 H   0  0  0  0  0  0  0  0  0  0  0  0
   -8.6182    4.3823    2.6765 H   0  0  0  0  0  0  0  0  0  0  0  0
   -4.1381    2.5658    0.3554 H   0  0  0  0  0  0  0  0  0  0  0  0
   -4.9935    5.8908    0.5388 H   0  0  0  0  0  0  0  0  0  0  0  0
   -5.7887    7.4107   -1.1972 H   0  0  0  0  0  0  0  0  0  0  0  0
   -7.6630    5.5816   -4.8432 H   0  0  0  0  0  0  0  0  0  0  0  0
   -7.1618    7.0896   -5.5697 H   0  0  0  0  0  0  0  0  0  0  0  0
   -6.6221    3.6447   -5.6148 H   0  0  0  0  0  0  0  0  0  0  0  0
   -4.3777    2.5578   -5.9241 H   0  0  0  0  0  0  0  0  0  0  0  0
   -2.6113    3.7705   -6.9948 H   0  0  0  0  0  0  0  0  0  0  0  0
   -2.5968    6.2075   -6.6468 H   0  0  0  0  0  0  0  0  0  0  0  0
   -4.6241    7.3449   -5.9303 H   0  0  0  0  0  0  0  0  0  0  0  0
   -5.4970    2.6257   -2.1649 H   0  0  0  0  0  0  0  0  0  0  0  0
   -3.7616    1.3269    1.7977 H   0  0  0  0  0  0  0  0  0  0  0  0
  1  2  1  0  0  0  0
  1 40  1  0  0  0  0
  1 41  1  0  0  0  0
  1 42  1  0  0  0  0
  2  3  2  0  0  0  0
  2  4  2  0  0  0  0
  2  5  1  0  0  0  0
  5  6  1  0  0  0  0
  5 43  1  0  0  0  0
  5 44  1  0  0  0  0
  6  7  1  0  0  0  0
  6 45  1  0  0  0  0
  6 46  1  0  0  0  0
  7  8  1  0  0  0  0
  7 47  1  0  0  0  0
  8  9  1  0  0  0  0
  8 48  1  0  0  0  0
  8 49  1  0  0  0  0
  9 10  2  0  0  0  0
  9 39  1  0  0  0  0
 10 11  1  0  0  0  0
 10 50  1  0  0  0  0
 11 12  2  0  0  0  0
 11 51  1  0  0  0  0
 12 13  1  0  0  0  0
 12 39  1  0  0  0  0
 13 14  1  0  0  0  0
 13 38  2  0  0  0  0
 14 15  2  0  0  0  0
 14 52  1  0  0  0  0
 15 16  1  0  0  0  0
 15 53  1  0  0  0  0
 16 17  1  0  0  0  0
 16 37  2  0  0  0  0
 17 18  2  0  0  0  0
 18 19  1  0  0  0  0
 18 54  1  0  0  0  0
 19 20  2  0  0  0  0
 20 21  1  0  0  0  0
 20 37  1  0  0  0  0
 21 22  1  0  0  0  0
 21 55  1  0  0  0  0
 22 23  1  0  0  0  0
 22 36  2  0  0  0  0
 23 24  2  0  0  0  0
 23 56  1  0  0  0  0
 24 25  1  0  0  0  0
 24 57  1  0  0  0  0
 25 26  1  0  0  0  0
 25 34  2  0  0  0  0
 26 27  1  0  0  0  0
 27 28  1  0  0  0  0
 27 58  1  0  0  0  0
 27 59  1  0  0  0  0
 28 29  1  0  0  0  0
 28 33  2  0  0  0  0
 29 30  2  0  0  0  0
 29 60  1  0  0  0  0
 30 31  1  0  0  0  0
 30 61  1  0  0  0  0
 31 32  2  0  0  0  0
 31 62  1  0  0  0  0
 32 33  1  0  0  0  0
 32 63  1  0  0  0  0
 33 64  1  0  0  0  0
 34 35  1  0  0  0  0
 34 36  1  0  0  0  0
 36 65  1  0  0  0  0
 37 38  1  0  0  0  0
 38 66  1  0  0  0  0
M  END
