REMARK  Name = 
REMARK  11 active torsions:
REMARK  status: ('A' for Active; 'I' for Inactive)
REMARK    1  A    between atoms: C_1  and  S_2
REMARK    2  A    between atoms: S_2  and  C_5
REMARK    3  A    between atoms: C_5  and  C_6
REMARK    4  A    between atoms: C_6  and  N_7
REMARK    5  A    between atoms: N_7  and  C_8
REMARK    6  A    between atoms: C_8  and  C_9
REMARK    7  A    between atoms: C_12  and  C_13
REMARK    8  A    between atoms: N_21  and  C_22
REMARK    9  A    between atoms: C_25  and  O_26
REMARK   10  A    between atoms: O_26  and  C_27
REMARK   11  A    between atoms: C_27  and  C_28
REMARK                            x       y       z     vdW  Elec       q    Type
REMARK                         _______ _______ _______ _____ _____    ______ ____
ROOT
ATOM      1  C   UNL     1      -4.302   0.408   3.625  0.00  0.00    +0.000 A 
ATOM      2  C   UNL     1      -5.246   0.335   4.666  0.00  0.00    +0.000 A 
ATOM      3  C   UNL     1      -6.354   1.136   4.664  0.00  0.00    +0.000 A 
ATOM      4  C   UNL     1      -6.551   2.072   3.624  0.00  0.00    +0.000 A 
ATOM      5  N   UNL     1      -7.649   2.894   3.646  0.00  0.00    +0.000 NA
ATOM      6  C   UNL     1      -7.769   3.732   2.653  0.00  0.00    +0.000 A 
ATOM      7  N   UNL     1      -6.924   3.867   1.585  0.00  0.00    +0.000 NA
ATOM      8  C   UNL     1      -5.877   3.079   1.544  0.00  0.00    +0.000 A 
ATOM      9  N   UNL     1      -4.957   3.172   0.402  0.00  0.00    +0.000 N 
ATOM     10  C   UNL     1      -5.607   2.133   2.574  0.00  0.00    +0.000 A 
ATOM     11  C   UNL     1      -4.477   1.284   2.592  0.00  0.00    +0.000 A 
ATOM     12  H   UNL     1      -4.138   2.566   0.355  0.00  0.00    +0.000 HD
ENDROOT
BRANCH   9  13
ATOM     13  C   UNL     1      -5.216   4.141  -0.673  0.00  0.00    +0.000 A 
ATOM     14  C   UNL     1      -5.281   5.508  -0.418  0.00  0.00    +0.000 A 
ATOM     15  C   UNL     1      -5.717   6.363  -1.401  0.00  0.00    +0.000 A 
ATOM     16  C   UNL     1      -6.062   5.886  -2.648  0.00  0.00    +0.000 A 
ATOM     17  C   UNL     1      -5.979   4.580  -2.891  0.00  0.00    +0.000 A 
ATOM     18 BR   UNL     1      -6.414   3.902  -4.607  0.00  0.00    +0.000 Br
ATOM     19  C   UNL     1      -5.558   3.669  -1.936  0.00  0.00    +0.000 A 
BRANCH  16  20
ATOM     20  O   UNL     1      -6.503   6.778  -3.661  0.00  0.00    +0.000 OA
BRANCH  20  21
ATOM     21  C   UNL     1      -6.857   6.278  -4.942  0.00  0.00    +0.000 C 
BRANCH  21  22
ATOM     22  C   UNL     1      -5.658   5.581  -5.563  0.00  0.00    +0.000 A 
ATOM     23  C   UNL     1      -5.719   4.207  -5.729  0.00  0.00    +0.000 A 
ATOM     24  C   UNL     1      -4.478   3.614  -6.063  0.00  0.00    +0.000 A 
ATOM     25  C   UNL     1      -3.436   4.274  -6.534  0.00  0.00    +0.000 A 
ATOM     26  C   UNL     1      -3.466   5.634  -6.402  0.00  0.00    +0.000 A 
ATOM     27  C   UNL     1      -4.597   6.276  -5.958  0.00  0.00    +0.000 A 
ENDBRANCH  21  22
ENDBRANCH  20  21
ENDBRANCH  16  20
ENDBRANCH   9  13
BRANCH   1  31
ATOM     28  C   UNL     1      -1.024  -1.185   3.671  0.00  0.00    +0.000 A 
ATOM     29  C   UNL     1      -1.768  -2.300   3.669  0.00  0.00    +0.000 A 
ATOM     30  C   UNL     1      -3.111  -1.850   3.654  0.00  0.00    +0.000 A 
ATOM     31  C   UNL     1      -3.078  -0.494   3.650  0.00  0.00    +0.000 A 
ATOM     32  O   UNL     1      -1.776  -0.056   3.672  0.00  0.00    +0.000 OA
BRANCH  28  33
ATOM     33  C   UNL     1       0.496  -1.185   3.671  0.00  0.00    +0.000 C 
BRANCH  33  34
ATOM     34  N   UNL     1       0.986  -0.233   2.663  0.00  0.00    +0.000 NA
ATOM     35  H   UNL     1       0.646  -0.508   1.742  0.00  0.00    +0.000 HD
BRANCH  34  36
ATOM     36  C   UNL     1       0.496   1.116   2.984  0.00  0.00    +0.000 C 
BRANCH  36  37
ATOM     37  C   UNL     1       1.003   2.100   1.943  0.00  0.00    +0.000 C 
BRANCH  37  39
ATOM     38  C   UNL     1       1.003  -0.048  -0.088  0.00  0.00    +0.000 C 
ATOM     39  S   UNL     1       0.399   1.612   0.307  0.00  0.00    +0.000 S 
ATOM     40  O   UNL     1       0.909   2.603  -0.741  0.00  0.00    +0.000 OA
ATOM     41  O   UNL     1      -1.131   1.612   0.307  0.00  0.00    +0.000 OA
ENDBRANCH  37  39
ENDBRANCH  36  37
ENDBRANCH  34  36
ENDBRANCH  33  34
ENDBRANCH  28  33
ENDBRANCH   1  31
TORSDOF 10
