REMARK  Name = 
REMARK  9 active torsions:
REMARK  status: ('A' for Active; 'I' for Inactive)
REMARK    1  A    between atoms: C_1  and  N_2
REMARK    2  A    between atoms: N_2  and  C_3
REMARK    3  A    between atoms: N_2  and  C_4
REMARK    4  A    between atoms: C_4  and  C_5
REMARK    5  A    between atoms: C_5  and  C_6
REMARK    6  A    between atoms: C_6  and  N_7
REMARK    7  A    between atoms: C_12  and  C_13
REMARK    8  A    between atoms: C_14  and  C_15
REMARK    9  A    between atoms: C_25  and  C_26
REMARK                            x       y       z     vdW  Elec       q    Type
REMARK                         _______ _______ _______ _____ _____    ______ ____
ROOT
ATOM      1  C   UNL     1       3.170   4.176   5.205  0.00  0.00    +0.000 A 
ATOM      2  C   UNL     1       3.301   3.217   6.099  0.00  0.00    +0.000 A 
ATOM      3  N   UNL     1       2.919   3.642   7.295  0.00  0.00    +0.000 NA
ATOM      4  N   UNL     1       2.527   4.911   7.191  0.00  0.00    +0.000 N 
ATOM      5  C   UNL     1       2.029   5.878   8.089  0.00  0.00    +0.000 A 
ATOM      6  C   UNL     1       1.722   7.111   7.632  0.00  0.00    +0.000 A 
ATOM      7  C   UNL     1       1.874   7.443   6.323  0.00  0.00    +0.000 A 
ATOM      8  C   UNL     1       2.351   6.560   5.418  0.00  0.00    +0.000 A 
ATOM      9  C   UNL     1       2.689   5.267   5.823  0.00  0.00    +0.000 A 
ENDROOT
BRANCH   1  15
ATOM     10  N   UNL     1       2.535   2.239   0.767  0.00  0.00    +0.000 N 
ATOM     11  C   UNL     1       3.270   3.105   1.700  0.00  0.00    +0.000 A 
ATOM     12  N   UNL     1       4.211   3.845   1.100  0.00  0.00    +0.000 NA
ATOM     13  C   UNL     1       4.785   4.754   1.902  0.00  0.00    +0.000 A 
ATOM     14  C   UNL     1       4.478   4.910   3.217  0.00  0.00    +0.000 A 
ATOM     15  C   UNL     1       3.518   4.070   3.730  0.00  0.00    +0.000 A 
ATOM     16  N   UNL     1       2.883   3.171   2.989  0.00  0.00    +0.000 NA
ATOM     17  H   UNL     1       3.045   1.637   0.120  0.00  0.00    +0.000 HD
BRANCH  10  18
ATOM     18  C   UNL     1       1.065   2.239   0.767  0.00  0.00    +0.000 C 
BRANCH  18  19
ATOM     19  C   UNL     1       0.558   2.660  -0.602  0.00  0.00    +0.000 C 
BRANCH  19  20
ATOM     20  C   UNL     1       1.065   1.684  -1.652  0.00  0.00    +0.000 C 
BRANCH  20  22
ATOM     21  C   UNL     1       1.065  -0.074  -0.018  0.00  0.00    +0.000 C 
ATOM     22  N   UNL     1       0.575   0.333  -1.343  0.00  0.00    +0.000 NA
ATOM     23  C   UNL     1      -0.895   0.333  -1.343  0.00  0.00    +0.000 C 
ENDBRANCH  20  22
ENDBRANCH  19  20
ENDBRANCH  18  19
ENDBRANCH  10  18
ENDBRANCH   1  15
BRANCH   2  24
ATOM     24  C   UNL     1       3.819   1.819   5.802  0.00  0.00    +0.000 A 
ATOM     25  C   UNL     1       5.121   1.601   5.272  0.00  0.00    +0.000 A 
ATOM     26  C   UNL     1       5.437   0.352   4.712  0.00  0.00    +0.000 A 
ATOM     27  C   UNL     1       4.658  -0.669   4.918  0.00  0.00    +0.000 A 
ATOM     28  F   UNL     1       4.952  -1.849   4.379  0.00  0.00    +0.000 F 
ATOM     29  C   UNL     1       3.508  -0.528   5.707  0.00  0.00    +0.000 A 
ATOM     30  C   UNL     1       3.026   0.768   6.016  0.00  0.00    +0.000 A 
ENDBRANCH   2  24
BRANCH   6  31
ATOM     31  C   UNL     1       1.193   8.152   8.605  0.00  0.00    +0.000 C 
ATOM     32  F   UNL     1       0.065   7.713   9.155  0.00  0.00    +0.000 F 
ATOM     33  F   UNL     1       2.096   8.368   9.557  0.00  0.00    +0.000 F 
ATOM     34  F   UNL     1       0.956   9.287   7.954  0.00  0.00    +0.000 F 
ENDBRANCH   6  31
TORSDOF 7
