REMARK  Name = 
REMARK  9 active torsions:
REMARK  status: ('A' for Active; 'I' for Inactive)
REMARK    1  A    between atoms: C_1  and  N_2
REMARK    2  A    between atoms: N_2  and  C_3
REMARK    3  A    between atoms: N_2  and  C_4
REMARK    4  A    between atoms: C_4  and  C_5
REMARK    5  A    between atoms: C_5  and  C_6
REMARK    6  A    between atoms: C_6  and  N_7
REMARK    7  A    between atoms: C_12  and  C_13
REMARK    8  A    between atoms: C_14  and  C_15
REMARK    9  A    between atoms: C_25  and  C_26
REMARK                            x       y       z     vdW  Elec       q    Type
REMARK                         _______ _______ _______ _____ _____    ______ ____
ROOT
ATOM      1  C   UNL     1       3.023   2.201   6.262  0.00  0.00    +0.000 A 
ATOM      2  C   UNL     1       3.209   0.995   6.759  0.00  0.00    +0.000 A 
ATOM      3  N   UNL     1       2.877   0.965   8.041  0.00  0.00    +0.000 NA
ATOM      4  N   UNL     1       2.462   2.178   8.403  0.00  0.00    +0.000 N 
ATOM      5  C   UNL     1       1.993   2.756   9.601  0.00  0.00    +0.000 A 
ATOM      6  C   UNL     1       1.648   4.061   9.616  0.00  0.00    +0.000 A 
ATOM      7  C   UNL     1       1.734   4.833   8.501  0.00  0.00    +0.000 A 
ATOM      8  C   UNL     1       2.181   4.336   7.327  0.00  0.00    +0.000 A 
ATOM      9  C   UNL     1       2.557   2.994   7.240  0.00  0.00    +0.000 A 
ENDROOT
BRANCH   1  15
ATOM     10  N   UNL     1       2.450   1.976   1.440  0.00  0.00    +0.000 N 
ATOM     11  C   UNL     1       3.185   2.479   2.610  0.00  0.00    +0.000 A 
ATOM     12  N   UNL     1       4.162   3.352   2.335  0.00  0.00    +0.000 NA
ATOM     13  C   UNL     1       4.739   3.885   3.422  0.00  0.00    +0.000 A 
ATOM     14  C   UNL     1       4.403   3.562   4.698  0.00  0.00    +0.000 A 
ATOM     15  C   UNL     1       3.407   2.628   4.855  0.00  0.00    +0.000 A 
ATOM     16  N   UNL     1       2.767   2.084   3.829  0.00  0.00    +0.000 NA
ATOM     17  H   UNL     1       2.960   1.627   0.629  0.00  0.00    +0.000 HD
BRANCH  10  18
ATOM     18  C   UNL     1       0.980   1.976   1.440  0.00  0.00    +0.000 C 
BRANCH  18  19
ATOM     19  C   UNL     1       0.473   2.833   0.292  0.00  0.00    +0.000 C 
BRANCH  19  20
ATOM     20  C   UNL     1       0.980   2.267  -1.025  0.00  0.00    +0.000 C 
BRANCH  20  22
ATOM     21  C   UNL     1       0.980   0.061  -0.076  0.00  0.00    +0.000 C 
ATOM     22  N   UNL     1       0.490   0.890  -1.187  0.00  0.00    +0.000 NA
ATOM     23  C   UNL     1      -0.980   0.890  -1.187  0.00  0.00    +0.000 C 
ENDBRANCH  20  22
ENDBRANCH  19  20
ENDBRANCH  18  19
ENDBRANCH  10  18
ENDBRANCH   1  15
BRANCH   2  24
ATOM     24  C   UNL     1       3.732  -0.196   5.971  0.00  0.00    +0.000 A 
ATOM     25  C   UNL     1       5.007  -0.202   5.340  0.00  0.00    +0.000 A 
ATOM     26  C   UNL     1       5.247  -1.092   4.280  0.00  0.00    +0.000 A 
ATOM     27  C   UNL     1       4.426  -2.076   4.059  0.00  0.00    +0.000 A 
ATOM     28  F   UNL     1       4.649  -2.912   3.049  0.00  0.00    +0.000 F 
ATOM     29  C   UNL     1       3.307  -2.257   4.883  0.00  0.00    +0.000 A 
ATOM     30  C   UNL     1       2.896  -1.210   5.744  0.00  0.00    +0.000 A 
ENDBRANCH   2  24
BRANCH   6  31
ATOM     31  C   UNL     1       1.150   4.682  10.912  0.00  0.00    +0.000 C 
ATOM     32  F   UNL     1       0.055   4.045  11.316  0.00  0.00    +0.000 F 
ATOM     33  F   UNL     1       2.093   4.578  11.844  0.00  0.00    +0.000 F 
ATOM     34  F   UNL     1       0.867   5.965  10.708  0.00  0.00    +0.000 F 
ENDBRANCH   6  31
TORSDOF 7
