REMARK  Name = 
REMARK  10 active torsions:
REMARK  status: ('A' for Active; 'I' for Inactive)
REMARK    1  A    between atoms: C_1  and  O_2
REMARK    2  A    between atoms: O_2  and  C_3
REMARK    3  A    between atoms: C_5  and  N_6
REMARK    4  A    between atoms: C_11  and  N_12
REMARK    5  A    between atoms: N_12  and  C_13
REMARK    6  A    between atoms: C_17  and  C_18
REMARK    7  A    between atoms: C_25  and  O_26
REMARK    8  A    between atoms: O_26  and  C_27
REMARK    9  A    between atoms: C_28  and  O_29
REMARK   10  A    between atoms: O_29  and  C_30
REMARK                            x       y       z     vdW  Elec       q    Type
REMARK                         _______ _______ _______ _____ _____    ______ ____
ROOT
ATOM      1  N   UNL     1      -0.879  -4.884  -2.876  0.00  0.00    +0.000 N 
ATOM      2  C   UNL     1      -2.221  -4.828  -2.278  0.00  0.00    +0.000 A 
ATOM      3  N   UNL     1      -2.596  -5.890  -1.554  0.00  0.00    +0.000 NA
ATOM      4  C   UNL     1      -3.816  -5.775  -1.008  0.00  0.00    +0.000 A 
ATOM      5  C   UNL     1      -4.629  -4.700  -1.181  0.00  0.00    +0.000 A 
ATOM      6  C   UNL     1      -4.147  -3.684  -1.972  0.00  0.00    +0.000 A 
ATOM      7  N   UNL     1      -2.938  -3.713  -2.517  0.00  0.00    +0.000 NA
ATOM      8  H   UNL     1      -0.645  -5.627  -3.535  0.00  0.00    +0.000 HD
ENDROOT
BRANCH   1  11
ATOM      9  C   UNL     1       0.820  -2.192  -1.037  0.00  0.00    +0.000 A 
ATOM     10  C   UNL     1      -0.251  -2.861  -1.607  0.00  0.00    +0.000 A 
ATOM     11  C   UNL     1       0.125  -3.869  -2.525  0.00  0.00    +0.000 A 
ATOM     12  C   UNL     1       1.316  -3.962  -3.089  0.00  0.00    +0.000 A 
ATOM     13  C   UNL     1       2.317  -3.225  -2.521  0.00  0.00    +0.000 A 
ATOM     14  C   UNL     1       2.047  -2.314  -1.528  0.00  0.00    +0.000 A 
BRANCH   9  16
ATOM     15  C   UNL     1       0.950   0.061  -0.061  0.00  0.00    +0.000 C 
ATOM     16  O   UNL     1       0.477  -1.276  -0.008  0.00  0.00    +0.000 OA
ENDBRANCH   9  16
BRANCH  13  17
ATOM     17  O   UNL     1       3.655  -3.404  -2.962  0.00  0.00    +0.000 OA
ATOM     18  C   UNL     1       4.702  -2.643  -2.379  0.00  0.00    +0.000 C 
ENDBRANCH  13  17
BRANCH  14  19
ATOM     19  O   UNL     1       3.091  -1.494  -1.024  0.00  0.00    +0.000 OA
ATOM     20  C   UNL     1       2.820  -0.550   0.002  0.00  0.00    +0.000 C 
ENDBRANCH  14  19
ENDBRANCH   1  11
BRANCH   6  21
ATOM     21  N   UNL     1      -5.007  -2.518  -2.224  0.00  0.00    +0.000 N 
ATOM     22  H   UNL     1      -5.940  -2.475  -1.815  0.00  0.00    +0.000 HD
BRANCH  21  23
ATOM     23  C   UNL     1      -4.521  -1.415  -3.065  0.00  0.00    +0.000 A 
ATOM     24  C   UNL     1      -4.269  -0.137  -2.594  0.00  0.00    +0.000 A 
ATOM     25  C   UNL     1      -3.946   0.794  -3.609  0.00  0.00    +0.000 A 
ATOM     26  C   UNL     1      -3.555   0.469  -4.828  0.00  0.00    +0.000 A 
ATOM     27  C   UNL     1      -2.936   1.426  -5.707  0.00  0.00    +0.000 A 
ATOM     28  C   UNL     1      -2.717   2.856  -5.241  0.00  0.00    +0.000 C 
ATOM     29  N   UNL     1      -2.538   1.042  -6.986  0.00  0.00    +0.000 N 
ATOM     30  N   UNL     1      -3.538  -1.200  -6.531  0.00  0.00    +0.000 NA
ATOM     31  C   UNL     1      -3.769  -0.827  -5.209  0.00  0.00    +0.000 A 
ATOM     32  C   UNL     1      -4.209  -1.766  -4.307  0.00  0.00    +0.000 A 
ATOM     33  H   UNL     1      -2.100   1.720  -7.609  0.00  0.00    +0.000 HD
ENDBRANCH  21  23
ENDBRANCH   6  21
TORSDOF 6
