
 OpenBabel03132512093D

 55 58  0  0  0  0  0  0  0  0999 V2000
    0.9797    0.0614   -0.0762 C   0  0  0  0  0  0  0  0  0  0  0  0
    0.4897    0.8903   -1.1870 N   0  0  0  0  0  0  0  0  0  0  0  0
   -0.9803    0.8903   -1.1870 C   0  0  0  0  0  0  0  0  0  0  0  0
    0.9797    2.2666   -1.0246 C   0  0  0  0  0  0  0  0  0  0  0  0
    0.4731    2.8328    0.2919 C   0  0  0  0  0  0  0  0  0  0  0  0
    0.9797    1.9758    1.4404 C   0  0  0  0  0  0  0  0  0  0  0  0
    2.4497    1.9758    1.4404 N   0  0  0  0  0  0  0  0  0  0  0  0
    3.1847    2.4788    2.6099 C   0  0  0  0  0  0  0  0  0  0  0  0
    4.1617    3.3522    2.3349 N   0  0  0  0  0  0  0  0  0  0  0  0
    4.7395    3.8845    3.4218 C   0  0  0  0  0  0  0  0  0  0  0  0
    4.4033    3.5624    4.6983 C   0  0  0  0  0  0  0  0  0  0  0  0
    3.4068    2.6280    4.8551 C   0  0  0  0  0  0  0  0  0  0  0  0
    3.0230    2.2007    6.2624 C   0  0  0  0  0  0  0  0  0  0  0  0
    3.2091    0.9947    6.7590 C   0  0  0  0  0  0  0  0  0  0  0  0
    3.7320   -0.1955    5.9713 C   0  0  0  0  0  0  0  0  0  0  0  0
    5.0071   -0.2017    5.3402 C   0  0  0  0  0  0  0  0  0  0  0  0
    5.2470   -1.0917    4.2805 C   0  0  0  0  0  0  0  0  0  0  0  0
    4.4263   -2.0760    4.0589 C   0  0  0  0  0  0  0  0  0  0  0  0
    4.6492   -2.9121    3.0488 F   0  0  0  0  0  0  0  0  0  0  0  0
    3.3074   -2.2567    4.8829 C   0  0  0  0  0  0  0  0  0  0  0  0
    2.8964   -1.2105    5.7442 C   0  0  0  0  0  0  0  0  0  0  0  0
    2.8766    0.9645    8.0412 N   0  0  0  0  0  0  0  0  0  0  0  0
    2.4625    2.1779    8.4027 N   0  0  0  0  0  0  0  0  0  0  0  0
    1.9933    2.7555    9.6011 C   0  0  0  0  0  0  0  0  0  0  0  0
    1.6476    4.0611    9.6164 C   0  0  0  0  0  0  0  0  0  0  0  0
    1.1500    4.6818   10.9116 C   0  0  0  0  0  0  0  0  0  0  0  0
    0.0548    4.0449   11.3162 F   0  0  0  0  0  0  0  0  0  0  0  0
    2.0930    4.5783   11.8438 F   0  0  0  0  0  0  0  0  0  0  0  0
    0.8668    5.9652   10.7081 F   0  0  0  0  0  0  0  0  0  0  0  0
    1.7342    4.8332    8.5013 C   0  0  0  0  0  0  0  0  0  0  0  0
    2.1814    4.3359    7.3266 C   0  0  0  0  0  0  0  0  0  0  0  0
    2.5565    2.9937    7.2404 C   0  0  0  0  0  0  0  0  0  0  0  0
    2.7667    2.0843    3.8285 N   0  0  0  0  0  0  0  0  0  0  0  0
    0.6230   -0.9404   -0.1945 H   0  0  0  0  0  0  0  0  0  0  0  0
    0.6231    0.4600    0.8505 H   0  0  0  0  0  0  0  0  0  0  0  0
    2.0497    0.0614   -0.0762 H   0  0  0  0  0  0  0  0  0  0  0  0
   -1.3370    1.2888   -0.2603 H   0  0  0  0  0  0  0  0  0  0  0  0
   -1.3370    1.4936   -1.9956 H   0  0  0  0  0  0  0  0  0  0  0  0
   -1.3370   -0.1116   -1.3052 H   0  0  0  0  0  0  0  0  0  0  0  0
    2.0497    2.2666   -1.0246 H   0  0  0  0  0  0  0  0  0  0  0  0
    0.6230    2.8699   -1.8332 H   0  0  0  0  0  0  0  0  0  0  0  0
    0.8297    3.8347    0.4101 H   0  0  0  0  0  0  0  0  0  0  0  0
   -0.5969    2.8328    0.2919 H   0  0  0  0  0  0  0  0  0  0  0  0
    0.6231    2.3744    2.3672 H   0  0  0  0  0  0  0  0  0  0  0  0
    0.6231    0.9739    1.3222 H   0  0  0  0  0  0  0  0  0  0  0  0
    2.9597    1.6268    0.6289 H   0  0  0  0  0  0  0  0  0  0  0  0
    5.5138    4.6082    3.2745 H   0  0  0  0  0  0  0  0  0  0  0  0
    4.8892    4.0129    5.5385 H   0  0  0  0  0  0  0  0  0  0  0  0
    5.7760    0.4653    5.6698 H   0  0  0  0  0  0  0  0  0  0  0  0
    6.1053   -0.9600    3.6554 H   0  0  0  0  0  0  0  0  0  0  0  0
    2.7667   -3.1798    4.8614 H   0  0  0  0  0  0  0  0  0  0  0  0
    1.9313   -1.2336    6.2056 H   0  0  0  0  0  0  0  0  0  0  0  0
    1.9119    2.1648   10.4896 H   0  0  0  0  0  0  0  0  0  0  0  0
    1.4409    5.8608    8.5545 H   0  0  0  0  0  0  0  0  0  0  0  0
    2.2477    4.9684    6.4660 H   0  0  0  0  0  0  0  0  0  0  0  0
  1  2  1  0  0  0  0
  1 34  1  0  0  0  0
  1 35  1  0  0  0  0
  1 36  1  0  0  0  0
  2  3  1  0  0  0  0
  2  4  1  0  0  0  0
  3 37  1  0  0  0  0
  3 38  1  0  0  0  0
  3 39  1  0  0  0  0
  4  5  1  0  0  0  0
  4 40  1  0  0  0  0
  4 41  1  0  0  0  0
  5  6  1  0  0  0  0
  5 42  1  0  0  0  0
  5 43  1  0  0  0  0
  6  7  1  0  0  0  0
  6 44  1  0  0  0  0
  6 45  1  0  0  0  0
  7  8  1  0  0  0  0
  7 46  1  0  0  0  0
  8  9  1  0  0  0  0
  8 33  2  0  0  0  0
  9 10  2  0  0  0  0
 10 11  1  0  0  0  0
 10 47  1  0  0  0  0
 11 12  2  0  0  0  0
 11 48  1  0  0  0  0
 12 13  1  0  0  0  0
 12 33  1  0  0  0  0
 13 14  1  0  0  0  0
 13 32  2  0  0  0  0
 14 15  1  0  0  0  0
 14 22  2  0  0  0  0
 15 16  1  0  0  0  0
 15 21  2  0  0  0  0
 16 17  2  0  0  0  0
 16 49  1  0  0  0  0
 17 18  1  0  0  0  0
 17 50  1  0  0  0  0
 18 19  1  0  0  0  0
 18 20  2  0  0  0  0
 20 21  1  0  0  0  0
 20 51  1  0  0  0  0
 21 52  1  0  0  0  0
 22 23  1  0  0  0  0
 23 24  1  0  0  0  0
 23 32  1  0  0  0  0
 24 25  2  0  0  0  0
 24 53  1  0  0  0  0
 25 26  1  0  0  0  0
 25 30  1  0  0  0  0
 26 27  1  0  0  0  0
 26 28  1  0  0  0  0
 26 29  1  0  0  0  0
 30 31  2  0  0  0  0
 30 54  1  0  0  0  0
 31 32  1  0  0  0  0
 31 55  1  0  0  0  0
M  END
