
 OpenBabel03132512093D

 52 55  0  0  0  0  0  0  0  0999 V2000
    0.9501    0.0613   -0.0612 C   0  0  0  0  0  0  0  0  0  0  0  0
    0.4768   -1.2764   -0.0078 O   0  0  0  0  0  0  0  0  0  0  0  0
    0.8198   -2.1925   -1.0371 C   0  0  0  0  0  0  0  0  0  0  0  0
   -0.2513   -2.8606   -1.6071 C   0  0  0  0  0  0  0  0  0  0  0  0
    0.1250   -3.8692   -2.5253 C   0  0  0  0  0  0  0  0  0  0  0  0
   -0.8791   -4.8839   -2.8761 N   0  0  0  0  0  0  0  0  0  0  0  0
   -2.2208   -4.8278   -2.2780 C   0  0  0  0  0  0  0  0  0  0  0  0
   -2.5962   -5.8902   -1.5545 N   0  0  0  0  0  0  0  0  0  0  0  0
   -3.8155   -5.7747   -1.0081 C   0  0  0  0  0  0  0  0  0  0  0  0
   -4.6292   -4.7003   -1.1808 C   0  0  0  0  0  0  0  0  0  0  0  0
   -4.1471   -3.6841   -1.9720 C   0  0  0  0  0  0  0  0  0  0  0  0
   -5.0066   -2.5184   -2.2237 N   0  0  0  0  0  0  0  0  0  0  0  0
   -4.5210   -1.4152   -3.0651 C   0  0  0  0  0  0  0  0  0  0  0  0
   -4.2695   -0.1371   -2.5943 C   0  0  0  0  0  0  0  0  0  0  0  0
   -3.9460    0.7943   -3.6091 C   0  0  0  0  0  0  0  0  0  0  0  0
   -3.5549    0.4686   -4.8277 C   0  0  0  0  0  0  0  0  0  0  0  0
   -2.9361    1.4263   -5.7075 C   0  0  0  0  0  0  0  0  0  0  0  0
   -2.7175    2.8563   -5.2412 C   0  0  0  0  0  0  0  0  0  0  0  0
   -2.5379    1.0420   -6.9857 N   0  0  0  0  0  0  0  0  0  0  0  0
   -3.5382   -1.2003   -6.5310 N   0  0  0  0  0  0  0  0  0  0  0  0
   -3.7691   -0.8268   -5.2092 C   0  0  0  0  0  0  0  0  0  0  0  0
   -4.2090   -1.7655   -4.3073 C   0  0  0  0  0  0  0  0  0  0  0  0
   -2.9384   -3.7128   -2.5172 N   0  0  0  0  0  0  0  0  0  0  0  0
    1.3156   -3.9625   -3.0889 C   0  0  0  0  0  0  0  0  0  0  0  0
    2.3170   -3.2252   -2.5205 C   0  0  0  0  0  0  0  0  0  0  0  0
    3.6547   -3.4040   -2.9621 O   0  0  0  0  0  0  0  0  0  0  0  0
    4.7025   -2.6435   -2.3787 C   0  0  0  0  0  0  0  0  0  0  0  0
    2.0475   -2.3138   -1.5283 C   0  0  0  0  0  0  0  0  0  0  0  0
    3.0914   -1.4941   -1.0235 O   0  0  0  0  0  0  0  0  0  0  0  0
    2.8200   -0.5501    0.0020 C   0  0  0  0  0  0  0  0  0  0  0  0
    0.5934    0.6002    0.7916 H   0  0  0  0  0  0  0  0  0  0  0  0
    0.5934    0.5305   -0.9543 H   0  0  0  0  0  0  0  0  0  0  0  0
    2.0201    0.0613   -0.0612 H   0  0  0  0  0  0  0  0  0  0  0  0
   -1.2709   -2.6344   -1.3742 H   0  0  0  0  0  0  0  0  0  0  0  0
   -0.6450   -5.6268   -3.5346 H   0  0  0  0  0  0  0  0  0  0  0  0
   -4.1697   -6.5791   -0.3978 H   0  0  0  0  0  0  0  0  0  0  0  0
   -5.5956   -4.6477   -0.7245 H   0  0  0  0  0  0  0  0  0  0  0  0
   -5.9399   -2.4751   -1.8145 H   0  0  0  0  0  0  0  0  0  0  0  0
   -4.3156    0.1224   -1.5572 H   0  0  0  0  0  0  0  0  0  0  0  0
   -4.0237    1.8350   -3.3728 H   0  0  0  0  0  0  0  0  0  0  0  0
   -1.6722    3.0836   -5.2655 H   0  0  0  0  0  0  0  0  0  0  0  0
   -3.2435    3.5268   -5.8883 H   0  0  0  0  0  0  0  0  0  0  0  0
   -3.0830    2.9653   -4.2414 H   0  0  0  0  0  0  0  0  0  0  0  0
   -2.0996    1.7203   -7.6088 H   0  0  0  0  0  0  0  0  0  0  0  0
   -4.3009   -2.7880   -4.6088 H   0  0  0  0  0  0  0  0  0  0  0  0
    1.4874   -4.5818   -3.9445 H   0  0  0  0  0  0  0  0  0  0  0  0
    4.5161   -1.6014   -2.5341 H   0  0  0  0  0  0  0  0  0  0  0  0
    4.7477   -2.8451   -1.3289 H   0  0  0  0  0  0  0  0  0  0  0  0
    5.6333   -2.9111   -2.8337 H   0  0  0  0  0  0  0  0  0  0  0  0
    2.0860    0.1485   -0.3415 H   0  0  0  0  0  0  0  0  0  0  0  0
    2.4502   -1.0596    0.8671 H   0  0  0  0  0  0  0  0  0  0  0  0
    3.7195   -0.0278    0.2531 H   0  0  0  0  0  0  0  0  0  0  0  0
  1  2  1  0  0  0  0
  1 31  1  0  0  0  0
  1 32  1  0  0  0  0
  1 33  1  0  0  0  0
  2  3  1  0  0  0  0
  3  4  1  0  0  0  0
  3 28  2  0  0  0  0
  4  5  2  0  0  0  0
  4 34  1  0  0  0  0
  5  6  1  0  0  0  0
  5 24  1  0  0  0  0
  6  7  1  0  0  0  0
  6 35  1  0  0  0  0
  7  8  1  0  0  0  0
  7 23  2  0  0  0  0
  8  9  2  0  0  0  0
  9 10  1  0  0  0  0
  9 36  1  0  0  0  0
 10 11  2  0  0  0  0
 10 37  1  0  0  0  0
 11 12  1  0  0  0  0
 11 23  1  0  0  0  0
 12 13  1  0  0  0  0
 12 38  1  0  0  0  0
 13 14  1  0  0  0  0
 13 22  2  0  0  0  0
 14 15  2  0  0  0  0
 14 39  1  0  0  0  0
 15 16  1  0  0  0  0
 15 40  1  0  0  0  0
 16 17  2  0  0  0  0
 16 21  1  0  0  0  0
 17 18  1  0  0  0  0
 17 19  1  0  0  0  0
 18 41  1  0  0  0  0
 18 42  1  0  0  0  0
 18 43  1  0  0  0  0
 19 20  1  0  0  0  0
 19 44  1  0  0  0  0
 20 21  2  0  0  0  0
 21 22  1  0  0  0  0
 22 45  1  0  0  0  0
 24 25  2  0  0  0  0
 24 46  1  0  0  0  0
 25 26  1  0  0  0  0
 25 28  1  0  0  0  0
 26 27  1  0  0  0  0
 27 47  1  0  0  0  0
 27 48  1  0  0  0  0
 27 49  1  0  0  0  0
 28 29  1  0  0  0  0
 29 30  1  0  0  0  0
 30 50  1  0  0  0  0
 30 51  1  0  0  0  0
 30 52  1  0  0  0  0
M  END
