
 OpenBabel03132514253D

 55 58  0  0  0  0  0  0  0  0999 V2000
    1.0647   -0.0741   -0.0178 C   0  0  0  0  0  0  0  0  0  0  0  0
    0.5747    0.3333   -1.3426 N   0  0  0  0  0  0  0  0  0  0  0  0
   -0.8953    0.3333   -1.3425 C   0  0  0  0  0  0  0  0  0  0  0  0
    1.0647    1.6842   -1.6521 C   0  0  0  0  0  0  0  0  0  0  0  0
    0.5580    2.6598   -0.6024 C   0  0  0  0  0  0  0  0  0  0  0  0
    1.0647    2.2386    0.7674 C   0  0  0  0  0  0  0  0  0  0  0  0
    2.5347    2.2386    0.7674 N   0  0  0  0  0  0  0  0  0  0  0  0
    3.2697    3.1053    1.6998 C   0  0  0  0  0  0  0  0  0  0  0  0
    4.2108    3.8452    1.0998 N   0  0  0  0  0  0  0  0  0  0  0  0
    4.7845    4.7536    1.9024 C   0  0  0  0  0  0  0  0  0  0  0  0
    4.4782    4.9105    3.2169 C   0  0  0  0  0  0  0  0  0  0  0  0
    3.5180    4.0701    3.7296 C   0  0  0  0  0  0  0  0  0  0  0  0
    3.1698    4.1755    5.2054 C   0  0  0  0  0  0  0  0  0  0  0  0
    3.3013    3.2169    6.0995 C   0  0  0  0  0  0  0  0  0  0  0  0
    3.8189    1.8192    5.8016 C   0  0  0  0  0  0  0  0  0  0  0  0
    5.1212    1.6007    5.2719 C   0  0  0  0  0  0  0  0  0  0  0  0
    5.4367    0.3519    4.7120 C   0  0  0  0  0  0  0  0  0  0  0  0
    4.6576   -0.6690    4.9179 C   0  0  0  0  0  0  0  0  0  0  0  0
    4.9522   -1.8487    4.3788 F   0  0  0  0  0  0  0  0  0  0  0  0
    3.5083   -0.5277    5.7069 C   0  0  0  0  0  0  0  0  0  0  0  0
    3.0263    0.7677    6.0155 C   0  0  0  0  0  0  0  0  0  0  0  0
    2.9190    3.6418    7.2949 N   0  0  0  0  0  0  0  0  0  0  0  0
    2.5271    4.9108    7.1908 N   0  0  0  0  0  0  0  0  0  0  0  0
    2.0293    5.8776    8.0894 C   0  0  0  0  0  0  0  0  0  0  0  0
    1.7217    7.1108    7.6322 C   0  0  0  0  0  0  0  0  0  0  0  0
    1.1931    8.1522    8.6050 C   0  0  0  0  0  0  0  0  0  0  0  0
    0.0649    7.7125    9.1554 F   0  0  0  0  0  0  0  0  0  0  0  0
    2.0961    8.3681    9.5573 F   0  0  0  0  0  0  0  0  0  0  0  0
    0.9556    9.2872    7.9537 F   0  0  0  0  0  0  0  0  0  0  0  0
    1.8736    7.4427    6.3230 C   0  0  0  0  0  0  0  0  0  0  0  0
    2.3508    6.5596    5.4176 C   0  0  0  0  0  0  0  0  0  0  0  0
    2.6894    5.2670    5.8226 C   0  0  0  0  0  0  0  0  0  0  0  0
    2.8833    3.1713    2.9889 N   0  0  0  0  0  0  0  0  0  0  0  0
    0.7080   -1.0574    0.2075 H   0  0  0  0  0  0  0  0  0  0  0  0
    0.7080    0.6127    0.7211 H   0  0  0  0  0  0  0  0  0  0  0  0
    2.1347   -0.0741   -0.0178 H   0  0  0  0  0  0  0  0  0  0  0  0
   -1.2520    1.0201   -0.6036 H   0  0  0  0  0  0  0  0  0  0  0  0
   -1.2520    0.6298   -2.3068 H   0  0  0  0  0  0  0  0  0  0  0  0
   -1.2520   -0.6501   -1.1172 H   0  0  0  0  0  0  0  0  0  0  0  0
    2.1347    1.6842   -1.6521 H   0  0  0  0  0  0  0  0  0  0  0  0
    0.7080    1.9807   -2.6163 H   0  0  0  0  0  0  0  0  0  0  0  0
    0.9147    3.6431   -0.8277 H   0  0  0  0  0  0  0  0  0  0  0  0
   -0.5120    2.6598   -0.6024 H   0  0  0  0  0  0  0  0  0  0  0  0
    0.7081    2.9254    1.5063 H   0  0  0  0  0  0  0  0  0  0  0  0
    0.7081    1.2552    0.9927 H   0  0  0  0  0  0  0  0  0  0  0  0
    3.0447    1.6372    0.1203 H   0  0  0  0  0  0  0  0  0  0  0  0
    5.5302    5.3950    1.4813 H   0  0  0  0  0  0  0  0  0  0  0  0
    4.9594    5.6501    3.8221 H   0  0  0  0  0  0  0  0  0  0  0  0
    5.8533    2.3805    5.2997 H   0  0  0  0  0  0  0  0  0  0  0  0
    6.3182    0.2403    4.1160 H   0  0  0  0  0  0  0  0  0  0  0  0
    2.9978   -1.3934    6.0741 H   0  0  0  0  0  0  0  0  0  0  0  0
    2.0422    0.9009    6.4139 H   0  0  0  0  0  0  0  0  0  0  0  0
    1.8966    5.6363    9.1234 H   0  0  0  0  0  0  0  0  0  0  0  0
    1.6086    8.4280    6.0008 H   0  0  0  0  0  0  0  0  0  0  0  0
    2.4685    6.8501    4.3946 H   0  0  0  0  0  0  0  0  0  0  0  0
  1  2  1  0  0  0  0
  1 34  1  0  0  0  0
  1 35  1  0  0  0  0
  1 36  1  0  0  0  0
  2  3  1  0  0  0  0
  2  4  1  0  0  0  0
  3 37  1  0  0  0  0
  3 38  1  0  0  0  0
  3 39  1  0  0  0  0
  4  5  1  0  0  0  0
  4 40  1  0  0  0  0
  4 41  1  0  0  0  0
  5  6  1  0  0  0  0
  5 42  1  0  0  0  0
  5 43  1  0  0  0  0
  6  7  1  0  0  0  0
  6 44  1  0  0  0  0
  6 45  1  0  0  0  0
  7  8  1  0  0  0  0
  7 46  1  0  0  0  0
  8  9  1  0  0  0  0
  8 33  2  0  0  0  0
  9 10  2  0  0  0  0
 10 11  1  0  0  0  0
 10 47  1  0  0  0  0
 11 12  2  0  0  0  0
 11 48  1  0  0  0  0
 12 13  1  0  0  0  0
 12 33  1  0  0  0  0
 13 14  1  0  0  0  0
 13 32  2  0  0  0  0
 14 15  1  0  0  0  0
 14 22  2  0  0  0  0
 15 16  1  0  0  0  0
 15 21  2  0  0  0  0
 16 17  2  0  0  0  0
 16 49  1  0  0  0  0
 17 18  1  0  0  0  0
 17 50  1  0  0  0  0
 18 19  1  0  0  0  0
 18 20  2  0  0  0  0
 20 21  1  0  0  0  0
 20 51  1  0  0  0  0
 21 52  1  0  0  0  0
 22 23  1  0  0  0  0
 23 24  1  0  0  0  0
 23 32  1  0  0  0  0
 24 25  2  0  0  0  0
 24 53  1  0  0  0  0
 25 26  1  0  0  0  0
 25 30  1  0  0  0  0
 26 27  1  0  0  0  0
 26 28  1  0  0  0  0
 26 29  1  0  0  0  0
 30 31  2  0  0  0  0
 30 54  1  0  0  0  0
 31 32  1  0  0  0  0
 31 55  1  0  0  0  0
M  END
