
 OpenBabel03132512093D

 75 79  0  0  0  0  0  0  0  0999 V2000
    1.0043    0.0891   -0.0452 C   0  0  0  0  0  0  0  0  0  0  0  0
    0.4976    0.4166    1.3499 C   0  0  0  0  0  0  0  0  0  0  0  0
    1.0043    1.7885    1.7639 C   0  0  0  0  0  0  0  0  0  0  0  0
    0.5143    2.7987    0.8150 N   0  0  0  0  0  0  0  0  0  0  0  0
    1.0043    4.1255    1.2153 C   0  0  0  0  0  0  0  0  0  0  0  0
    2.5243    4.1255    1.2153 C   0  0  0  0  0  0  0  0  0  0  0  0
    3.1276    3.7356   -0.4460 S   0  0  0  0  0  0  0  0  0  0  0  0
    2.5243    4.9794   -1.6144 C   0  0  0  0  0  0  0  0  0  0  0  0
    4.6581    3.7356   -0.4460 O   0  0  0  0  0  0  0  0  0  0  0  0
    2.6175    2.3542   -0.8628 O   0  0  0  0  0  0  0  0  0  0  0  0
    1.0043    2.4820   -0.5343 C   0  0  0  0  0  0  0  0  0  0  0  0
    2.5243    2.4820   -0.5343 C   0  0  0  0  0  0  0  0  0  0  0  0
    3.2680    3.5973   -0.5371 C   0  0  0  0  0  0  0  0  0  0  0  0
    4.6115    3.1478   -0.5517 C   0  0  0  0  0  0  0  0  0  0  0  0
    4.5788    1.7916   -0.5541 C   0  0  0  0  0  0  0  0  0  0  0  0
    5.8020    0.8897   -0.5783 C   0  0  0  0  0  0  0  0  0  0  0  0
    6.7467    0.9641    0.4633 C   0  0  0  0  0  0  0  0  0  0  0  0
    7.8542    0.1627    0.4615 C   0  0  0  0  0  0  0  0  0  0  0  0
    8.0514   -0.7747   -0.5770 C   0  0  0  0  0  0  0  0  0  0  0  0
    9.1497   -1.5961   -0.5544 N   0  0  0  0  0  0  0  0  0  0  0  0
    9.2698   -2.4351   -1.5462 C   0  0  0  0  0  0  0  0  0  0  0  0
    8.4245   -2.5717   -2.6140 N   0  0  0  0  0  0  0  0  0  0  0  0
    7.3779   -1.7831   -2.6560 C   0  0  0  0  0  0  0  0  0  0  0  0
    6.4573   -1.8785   -3.7981 N   0  0  0  0  0  0  0  0  0  0  0  0
    6.7166   -2.8481   -4.8721 C   0  0  0  0  0  0  0  0  0  0  0  0
    6.7673   -4.1921   -4.5388 C   0  0  0  0  0  0  0  0  0  0  0  0
    6.8429   -5.1613   -5.5328 C   0  0  0  0  0  0  0  0  0  0  0  0
    6.8902   -4.7803   -6.8698 C   0  0  0  0  0  0  0  0  0  0  0  0
    6.9579   -5.7581   -7.8974 O   0  0  0  0  0  0  0  0  0  0  0  0
    7.0056   -5.3556   -9.2583 C   0  0  0  0  0  0  0  0  0  0  0  0
    5.7576   -4.5557   -9.5942 C   0  0  0  0  0  0  0  0  0  0  0  0
    4.5934   -5.1927   -9.9120 C   0  0  0  0  0  0  0  0  0  0  0  0
    3.4792   -4.4315  -10.2317 C   0  0  0  0  0  0  0  0  0  0  0  0
    3.5462   -3.0471  -10.2411 C   0  0  0  0  0  0  0  0  0  0  0  0
    4.7131   -2.4693   -9.9052 C   0  0  0  0  0  0  0  0  0  0  0  0
    4.7836   -1.1141   -9.9092 F   0  0  0  0  0  0  0  0  0  0  0  0
    5.8234   -3.1712   -9.5811 C   0  0  0  0  0  0  0  0  0  0  0  0
    6.8702   -3.4312   -7.1816 C   0  0  0  0  0  0  0  0  0  0  0  0
    6.9468   -2.9661   -8.8535 Cl  0  0  0  0  0  0  0  0  0  0  0  0
    6.7541   -2.4503   -6.2079 C   0  0  0  0  0  0  0  0  0  0  0  0
    7.1075   -0.8368   -1.6268 C   0  0  0  0  0  0  0  0  0  0  0  0
    5.9779    0.0126   -1.6102 C   0  0  0  0  0  0  0  0  0  0  0  0
    3.2766    1.3537   -0.5315 O   0  0  0  0  0  0  0  0  0  0  0  0
    0.6476    0.8243   -0.7359 H   0  0  0  0  0  0  0  0  0  0  0  0
    0.6476   -0.8767   -0.3367 H   0  0  0  0  0  0  0  0  0  0  0  0
    2.0743    0.0891   -0.0452 H   0  0  0  0  0  0  0  0  0  0  0  0
   -0.5724    0.4166    1.3499 H   0  0  0  0  0  0  0  0  0  0  0  0
    0.8543   -0.3187    2.0406 H   0  0  0  0  0  0  0  0  0  0  0  0
    0.6476    2.0191    2.7460 H   0  0  0  0  0  0  0  0  0  0  0  0
    2.0743    1.7885    1.7639 H   0  0  0  0  0  0  0  0  0  0  0  0
    0.6476    4.8608    0.5246 H   0  0  0  0  0  0  0  0  0  0  0  0
    0.6476    4.3560    2.1974 H   0  0  0  0  0  0  0  0  0  0  0  0
    2.8809    5.0913    1.5068 H   0  0  0  0  0  0  0  0  0  0  0  0
    2.8809    3.3903    1.9060 H   0  0  0  0  0  0  0  0  0  0  0  0
    2.8810    5.9452   -1.3230 H   0  0  0  0  0  0  0  0  0  0  0  0
    2.8810    4.7488   -2.5965 H   0  0  0  0  0  0  0  0  0  0  0  0
    1.4543    4.9794   -1.6144 H   0  0  0  0  0  0  0  0  0  0  0  0
    0.6476    1.5162   -0.8257 H   0  0  0  0  0  0  0  0  0  0  0  0
    0.6476    3.2172   -1.2250 H   0  0  0  0  0  0  0  0  0  0  0  0
    2.9214    4.6096   -0.5298 H   0  0  0  0  0  0  0  0  0  0  0  0
    5.4873    3.7625   -0.5594 H   0  0  0  0  0  0  0  0  0  0  0  0
    6.5959    1.6560    1.2655 H   0  0  0  0  0  0  0  0  0  0  0  0
    8.5739    0.2456    1.2490 H   0  0  0  0  0  0  0  0  0  0  0  0
   10.1191   -3.0854   -1.5224 H   0  0  0  0  0  0  0  0  0  0  0  0
    5.6387   -1.2719   -3.8453 H   0  0  0  0  0  0  0  0  0  0  0  0
    6.7482   -4.4859   -3.5101 H   0  0  0  0  0  0  0  0  0  0  0  0
    6.8647   -6.1982   -5.2698 H   0  0  0  0  0  0  0  0  0  0  0  0
    7.8723   -4.7495   -9.4208 H   0  0  0  0  0  0  0  0  0  0  0  0
    7.0535   -6.2217   -9.8849 H   0  0  0  0  0  0  0  0  0  0  0  0
    4.5411   -6.2614   -9.9144 H   0  0  0  0  0  0  0  0  0  0  0  0
    2.5576   -4.9183  -10.4738 H   0  0  0  0  0  0  0  0  0  0  0  0
    2.6951   -2.4560  -10.5076 H   0  0  0  0  0  0  0  0  0  0  0  0
    6.7317   -2.6690   -9.3206 H   0  0  0  0  0  0  0  0  0  0  0  0
    6.6949   -1.4158   -6.4748 H   0  0  0  0  0  0  0  0  0  0  0  0
    5.2621   -0.0316   -2.4043 H   0  0  0  0  0  0  0  0  0  0  0  0
  1  2  1  0  0  0  0
  1 44  1  0  0  0  0
  1 45  1  0  0  0  0
  1 46  1  0  0  0  0
  2  3  1  0  0  0  0
  2 47  1  0  0  0  0
  2 48  1  0  0  0  0
  3  4  1  0  0  0  0
  3 49  1  0  0  0  0
  3 50  1  0  0  0  0
  4  5  1  0  0  0  0
  4 11  1  0  0  0  0
  5  6  1  0  0  0  0
  5 51  1  0  0  0  0
  5 52  1  0  0  0  0
  6  7  1  0  0  0  0
  6 53  1  0  0  0  0
  6 54  1  0  0  0  0
  7  8  1  0  0  0  0
  7  9  2  0  0  0  0
  7 10  2  0  0  0  0
  8 55  1  0  0  0  0
  8 56  1  0  0  0  0
  8 57  1  0  0  0  0
 11 12  1  0  0  0  0
 11 58  1  0  0  0  0
 11 59  1  0  0  0  0
 12 13  2  0  0  0  0
 12 43  1  0  0  0  0
 13 14  1  0  0  0  0
 13 60  1  0  0  0  0
 14 15  2  0  0  0  0
 14 61  1  0  0  0  0
 15 16  1  0  0  0  0
 15 43  1  0  0  0  0
 16 17  1  0  0  0  0
 16 42  2  0  0  0  0
 17 18  2  0  0  0  0
 17 62  1  0  0  0  0
 18 19  1  0  0  0  0
 18 63  1  0  0  0  0
 19 20  1  0  0  0  0
 19 41  2  0  0  0  0
 20 21  2  0  0  0  0
 21 22  1  0  0  0  0
 21 64  1  0  0  0  0
 22 23  2  0  0  0  0
 23 24  1  0  0  0  0
 23 41  1  0  0  0  0
 24 25  1  0  0  0  0
 24 65  1  0  0  0  0
 25 26  1  0  0  0  0
 25 40  2  0  0  0  0
 26 27  2  0  0  0  0
 26 66  1  0  0  0  0
 27 28  1  0  0  0  0
 27 67  1  0  0  0  0
 28 29  1  0  0  0  0
 28 38  2  0  0  0  0
 29 30  1  0  0  0  0
 30 31  1  0  0  0  0
 30 68  1  0  0  0  0
 30 69  1  0  0  0  0
 31 32  1  0  0  0  0
 31 37  2  0  0  0  0
 32 33  2  0  0  0  0
 32 70  1  0  0  0  0
 33 34  1  0  0  0  0
 33 71  1  0  0  0  0
 34 35  2  0  0  0  0
 34 72  1  0  0  0  0
 35 36  1  0  0  0  0
 35 37  1  0  0  0  0
 37 73  1  0  0  0  0
 38 39  1  0  0  0  0
 38 40  1  0  0  0  0
 40 74  1  0  0  0  0
 41 42  1  0  0  0  0
 42 75  1  0  0  0  0
M  END
