
 OpenBabel03132514253D

 75 79  0  0  0  0  0  0  0  0999 V2000
    1.0101   -0.0247    0.0964 C   0  0  0  0  0  0  0  0  0  0  0  0
    0.5034   -1.3701   -0.3972 C   0  0  0  0  0  0  0  0  0  0  0  0
    1.0101   -2.4702    0.5211 C   0  0  0  0  0  0  0  0  0  0  0  0
    0.5201   -2.2331    1.8866 N   0  0  0  0  0  0  0  0  0  0  0  0
    1.0101   -3.2971    2.7747 C   0  0  0  0  0  0  0  0  0  0  0  0
    2.5301   -3.2971    2.7747 C   0  0  0  0  0  0  0  0  0  0  0  0
    3.1334   -1.6950    3.3625 S   0  0  0  0  0  0  0  0  0  0  0  0
    2.5301   -1.4031    5.0438 C   0  0  0  0  0  0  0  0  0  0  0  0
    4.6638   -1.6950    3.3625 O   0  0  0  0  0  0  0  0  0  0  0  0
    2.6232   -0.5873    2.4379 O   0  0  0  0  0  0  0  0  0  0  0  0
    1.0101   -0.9320    2.3640 C   0  0  0  0  0  0  0  0  0  0  0  0
    2.5301   -0.9320    2.3640 C   0  0  0  0  0  0  0  0  0  0  0  0
    3.2738    0.1833    2.3540 C   0  0  0  0  0  0  0  0  0  0  0  0
    4.6173   -0.2663    2.3422 C   0  0  0  0  0  0  0  0  0  0  0  0
    4.5846   -1.6224    2.3486 C   0  0  0  0  0  0  0  0  0  0  0  0
    5.8078   -2.5245    2.3302 C   0  0  0  0  0  0  0  0  0  0  0  0
    6.7524   -2.4433    3.3713 C   0  0  0  0  0  0  0  0  0  0  0  0
    7.8597   -3.2451    3.3751 C   0  0  0  0  0  0  0  0  0  0  0  0
    8.0566   -4.1896    2.3430 C   0  0  0  0  0  0  0  0  0  0  0  0
    9.1546   -5.0113    2.3713 N   0  0  0  0  0  0  0  0  0  0  0  0
    9.2744   -5.8570    1.3852 C   0  0  0  0  0  0  0  0  0  0  0  0
    8.4292   -6.0006    0.3184 N   0  0  0  0  0  0  0  0  0  0  0  0
    7.3829   -5.2119    0.2709 C   0  0  0  0  0  0  0  0  0  0  0  0
    6.4623   -5.3148   -0.8706 N   0  0  0  0  0  0  0  0  0  0  0  0
    6.7213   -6.2918   -1.9379 C   0  0  0  0  0  0  0  0  0  0  0  0
    6.7715   -7.6335   -1.5953 C   0  0  0  0  0  0  0  0  0  0  0  0
    6.8469   -8.6096   -2.5825 C   0  0  0  0  0  0  0  0  0  0  0  0
    6.8945   -8.2380   -3.9221 C   0  0  0  0  0  0  0  0  0  0  0  0
    6.9619   -9.2229   -4.9428 O   0  0  0  0  0  0  0  0  0  0  0  0
    7.0100   -8.8300   -6.3065 C   0  0  0  0  0  0  0  0  0  0  0  0
    5.7622   -8.0320   -6.6481 C   0  0  0  0  0  0  0  0  0  0  0  0
    4.6001   -8.6704   -6.9704 C   0  0  0  0  0  0  0  0  0  0  0  0
    3.4865   -7.9106   -7.2956 C   0  0  0  0  0  0  0  0  0  0  0  0
    3.5522   -6.5261   -7.3058 C   0  0  0  0  0  0  0  0  0  0  0  0
    4.7171   -5.9469   -6.9654 C   0  0  0  0  0  0  0  0  0  0  0  0
    4.7862   -4.5916   -6.9702 F   0  0  0  0  0  0  0  0  0  0  0  0
    5.8267   -6.6474   -6.6359 C   0  0  0  0  0  0  0  0  0  0  0  0
    6.8750   -6.8911   -4.2433 C   0  0  0  0  0  0  0  0  0  0  0  0
    6.9519   -6.4377   -5.9183 Cl  0  0  0  0  0  0  0  0  0  0  0  0
    6.7591   -5.9034   -3.2765 C   0  0  0  0  0  0  0  0  0  0  0  0
    7.1128   -4.2586    1.2936 C   0  0  0  0  0  0  0  0  0  0  0  0
    5.9834   -3.4087    1.3043 C   0  0  0  0  0  0  0  0  0  0  0  0
    3.2824   -2.0602    2.3741 O   0  0  0  0  0  0  0  0  0  0  0  0
    0.6534    0.1479    1.0903 H   0  0  0  0  0  0  0  0  0  0  0  0
    0.6534    0.7498   -0.5501 H   0  0  0  0  0  0  0  0  0  0  0  0
    2.0801   -0.0247    0.0964 H   0  0  0  0  0  0  0  0  0  0  0  0
   -0.5666   -1.3701   -0.3972 H   0  0  0  0  0  0  0  0  0  0  0  0
    0.8601   -1.5427   -1.3912 H   0  0  0  0  0  0  0  0  0  0  0  0
    0.6534   -3.4173    0.1736 H   0  0  0  0  0  0  0  0  0  0  0  0
    2.0801   -2.4702    0.5211 H   0  0  0  0  0  0  0  0  0  0  0  0
    0.6534   -3.1245    3.7686 H   0  0  0  0  0  0  0  0  0  0  0  0
    0.6534   -4.2442    2.4272 H   0  0  0  0  0  0  0  0  0  0  0  0
    2.8867   -4.0716    3.4211 H   0  0  0  0  0  0  0  0  0  0  0  0
    2.8867   -3.4697    1.7808 H   0  0  0  0  0  0  0  0  0  0  0  0
    2.8867   -2.1775    5.6903 H   0  0  0  0  0  0  0  0  0  0  0  0
    2.8867   -0.4560    5.3913 H   0  0  0  0  0  0  0  0  0  0  0  0
    1.4601   -1.4031    5.0438 H   0  0  0  0  0  0  0  0  0  0  0  0
    0.6534   -0.1575    1.7175 H   0  0  0  0  0  0  0  0  0  0  0  0
    0.6534   -0.7594    3.3579 H   0  0  0  0  0  0  0  0  0  0  0  0
    2.9271    1.1956    2.3547 H   0  0  0  0  0  0  0  0  0  0  0  0
    5.4931    0.3483    2.3306 H   0  0  0  0  0  0  0  0  0  0  0  0
    6.6018   -1.7459    4.1688 H   0  0  0  0  0  0  0  0  0  0  0  0
    8.5793   -3.1571    4.1620 H   0  0  0  0  0  0  0  0  0  0  0  0
   10.1236   -6.5074    1.4135 H   0  0  0  0  0  0  0  0  0  0  0  0
    5.6439   -4.7083   -0.9220 H   0  0  0  0  0  0  0  0  0  0  0  0
    6.7521   -7.9201   -0.5645 H   0  0  0  0  0  0  0  0  0  0  0  0
    6.8683   -9.6447   -2.3122 H   0  0  0  0  0  0  0  0  0  0  0  0
    7.8768   -8.2253   -6.4731 H   0  0  0  0  0  0  0  0  0  0  0  0
    7.0576   -9.7004   -6.9270 H   0  0  0  0  0  0  0  0  0  0  0  0
    4.5489   -9.7392   -6.9721 H   0  0  0  0  0  0  0  0  0  0  0  0
    2.5664   -8.3985   -7.5412 H   0  0  0  0  0  0  0  0  0  0  0  0
    2.7017   -5.9360   -7.5765 H   0  0  0  0  0  0  0  0  0  0  0  0
    6.7333   -6.1442   -6.3719 H   0  0  0  0  0  0  0  0  0  0  0  0
    6.7004   -4.8708   -3.5506 H   0  0  0  0  0  0  0  0  0  0  0  0
    5.2676   -3.4580    0.5105 H   0  0  0  0  0  0  0  0  0  0  0  0
  1  2  1  0  0  0  0
  1 44  1  0  0  0  0
  1 45  1  0  0  0  0
  1 46  1  0  0  0  0
  2  3  1  0  0  0  0
  2 47  1  0  0  0  0
  2 48  1  0  0  0  0
  3  4  1  0  0  0  0
  3 49  1  0  0  0  0
  3 50  1  0  0  0  0
  4  5  1  0  0  0  0
  4 11  1  0  0  0  0
  5  6  1  0  0  0  0
  5 51  1  0  0  0  0
  5 52  1  0  0  0  0
  6  7  1  0  0  0  0
  6 53  1  0  0  0  0
  6 54  1  0  0  0  0
  7  8  1  0  0  0  0
  7  9  2  0  0  0  0
  7 10  2  0  0  0  0
  8 55  1  0  0  0  0
  8 56  1  0  0  0  0
  8 57  1  0  0  0  0
 11 12  1  0  0  0  0
 11 58  1  0  0  0  0
 11 59  1  0  0  0  0
 12 13  2  0  0  0  0
 12 43  1  0  0  0  0
 13 14  1  0  0  0  0
 13 60  1  0  0  0  0
 14 15  2  0  0  0  0
 14 61  1  0  0  0  0
 15 16  1  0  0  0  0
 15 43  1  0  0  0  0
 16 17  1  0  0  0  0
 16 42  2  0  0  0  0
 17 18  2  0  0  0  0
 17 62  1  0  0  0  0
 18 19  1  0  0  0  0
 18 63  1  0  0  0  0
 19 20  1  0  0  0  0
 19 41  2  0  0  0  0
 20 21  2  0  0  0  0
 21 22  1  0  0  0  0
 21 64  1  0  0  0  0
 22 23  2  0  0  0  0
 23 24  1  0  0  0  0
 23 41  1  0  0  0  0
 24 25  1  0  0  0  0
 24 65  1  0  0  0  0
 25 26  1  0  0  0  0
 25 40  2  0  0  0  0
 26 27  2  0  0  0  0
 26 66  1  0  0  0  0
 27 28  1  0  0  0  0
 27 67  1  0  0  0  0
 28 29  1  0  0  0  0
 28 38  2  0  0  0  0
 29 30  1  0  0  0  0
 30 31  1  0  0  0  0
 30 68  1  0  0  0  0
 30 69  1  0  0  0  0
 31 32  1  0  0  0  0
 31 37  2  0  0  0  0
 32 33  2  0  0  0  0
 32 70  1  0  0  0  0
 33 34  1  0  0  0  0
 33 71  1  0  0  0  0
 34 35  2  0  0  0  0
 34 72  1  0  0  0  0
 35 36  1  0  0  0  0
 35 37  1  0  0  0  0
 37 73  1  0  0  0  0
 38 39  1  0  0  0  0
 38 40  1  0  0  0  0
 40 74  1  0  0  0  0
 41 42  1  0  0  0  0
 42 75  1  0  0  0  0
M  END
