REMARK  Name = 
REMARK  14 active torsions:
REMARK  status: ('A' for Active; 'I' for Inactive)
REMARK    1  A    between atoms: C_1  and  C_2
REMARK    2  A    between atoms: C_2  and  C_3
REMARK    3  A    between atoms: C_3  and  N_4
REMARK    4  A    between atoms: N_4  and  C_5
REMARK    5  A    between atoms: N_4  and  C_11
REMARK    6  A    between atoms: C_5  and  C_6
REMARK    7  A    between atoms: C_6  and  S_7
REMARK    8  A    between atoms: S_7  and  C_8
REMARK    9  A    between atoms: C_11  and  C_12
REMARK   10  A    between atoms: C_15  and  C_16
REMARK   11  A    between atoms: N_24  and  C_25
REMARK   12  A    between atoms: C_28  and  O_29
REMARK   13  A    between atoms: O_29  and  C_30
REMARK   14  A    between atoms: C_30  and  C_31
REMARK                            x       y       z     vdW  Elec       q    Type
REMARK                         _______ _______ _______ _____ _____    ______ ____
ROOT
ATOM      1  C   UNL     1       5.802   0.890  -0.578  0.00  0.00    +0.000 A 
ATOM      2  C   UNL     1       6.747   0.964   0.463  0.00  0.00    +0.000 A 
ATOM      3  C   UNL     1       7.854   0.163   0.462  0.00  0.00    +0.000 A 
ATOM      4  C   UNL     1       8.051  -0.775  -0.577  0.00  0.00    +0.000 A 
ATOM      5  N   UNL     1       9.150  -1.596  -0.554  0.00  0.00    +0.000 NA
ATOM      6  C   UNL     1       9.270  -2.435  -1.546  0.00  0.00    +0.000 A 
ATOM      7  N   UNL     1       8.425  -2.572  -2.614  0.00  0.00    +0.000 NA
ATOM      8  C   UNL     1       7.378  -1.783  -2.656  0.00  0.00    +0.000 A 
ATOM      9  N   UNL     1       6.457  -1.879  -3.798  0.00  0.00    +0.000 N 
ATOM     10  C   UNL     1       7.107  -0.837  -1.627  0.00  0.00    +0.000 A 
ATOM     11  C   UNL     1       5.978   0.013  -1.610  0.00  0.00    +0.000 A 
ATOM     12  H   UNL     1       5.639  -1.272  -3.845  0.00  0.00    +0.000 HD
ENDROOT
BRANCH   9  13
ATOM     13  C   UNL     1       6.717  -2.848  -4.872  0.00  0.00    +0.000 A 
ATOM     14  C   UNL     1       6.767  -4.192  -4.539  0.00  0.00    +0.000 A 
ATOM     15  C   UNL     1       6.843  -5.161  -5.533  0.00  0.00    +0.000 A 
ATOM     16  C   UNL     1       6.890  -4.780  -6.870  0.00  0.00    +0.000 A 
ATOM     17  C   UNL     1       6.870  -3.431  -7.182  0.00  0.00    +0.000 A 
ATOM     18 CL   UNL     1       6.947  -2.966  -8.854  0.00  0.00    +0.000 Cl
ATOM     19  C   UNL     1       6.754  -2.450  -6.208  0.00  0.00    +0.000 A 
BRANCH  16  20
ATOM     20  O   UNL     1       6.958  -5.758  -7.897  0.00  0.00    +0.000 OA
BRANCH  20  21
ATOM     21  C   UNL     1       7.006  -5.356  -9.258  0.00  0.00    +0.000 C 
BRANCH  21  22
ATOM     22  C   UNL     1       5.758  -4.556  -9.594  0.00  0.00    +0.000 A 
ATOM     23  C   UNL     1       4.593  -5.193  -9.912  0.00  0.00    +0.000 A 
ATOM     24  C   UNL     1       3.479  -4.431 -10.232  0.00  0.00    +0.000 A 
ATOM     25  C   UNL     1       3.546  -3.047 -10.241  0.00  0.00    +0.000 A 
ATOM     26  C   UNL     1       4.713  -2.469  -9.905  0.00  0.00    +0.000 A 
ATOM     27  F   UNL     1       4.784  -1.114  -9.909  0.00  0.00    +0.000 F 
ATOM     28  C   UNL     1       5.823  -3.171  -9.581  0.00  0.00    +0.000 A 
ENDBRANCH  21  22
ENDBRANCH  20  21
ENDBRANCH  16  20
ENDBRANCH   9  13
BRANCH   1  32
ATOM     29  C   UNL     1       2.524   2.482  -0.534  0.00  0.00    +0.000 A 
ATOM     30  C   UNL     1       3.268   3.597  -0.537  0.00  0.00    +0.000 A 
ATOM     31  C   UNL     1       4.612   3.148  -0.552  0.00  0.00    +0.000 A 
ATOM     32  C   UNL     1       4.579   1.792  -0.554  0.00  0.00    +0.000 A 
ATOM     33  O   UNL     1       3.277   1.354  -0.531  0.00  0.00    +0.000 OA
BRANCH  29  34
ATOM     34  C   UNL     1       1.004   2.482  -0.534  0.00  0.00    +0.000 C 
BRANCH  34  35
ATOM     35  N   UNL     1       0.514   2.799   0.815  0.00  0.00    +0.000 NA
BRANCH  35  36
ATOM     36  C   UNL     1       1.004   1.788   1.764  0.00  0.00    +0.000 C 
BRANCH  36  38
ATOM     37  C   UNL     1       1.004   0.089  -0.045  0.00  0.00    +0.000 C 
ATOM     38  C   UNL     1       0.498   0.417   1.350  0.00  0.00    +0.000 C 
ENDBRANCH  36  38
ENDBRANCH  35  36
BRANCH  35  39
ATOM     39  C   UNL     1       1.004   4.125   1.215  0.00  0.00    +0.000 C 
BRANCH  39  40
ATOM     40  C   UNL     1       2.524   4.125   1.215  0.00  0.00    +0.000 C 
BRANCH  40  41
ATOM     41  S   UNL     1       3.128   3.736  -0.446  0.00  0.00    +0.000 S 
ATOM     42  C   UNL     1       2.524   4.979  -1.614  0.00  0.00    +0.000 C 
ATOM     43  O   UNL     1       4.658   3.736  -0.446  0.00  0.00    +0.000 OA
ATOM     44  O   UNL     1       2.618   2.354  -0.863  0.00  0.00    +0.000 OA
ENDBRANCH  40  41
ENDBRANCH  39  40
ENDBRANCH  35  39
ENDBRANCH  34  35
ENDBRANCH  29  34
ENDBRANCH   1  32
TORSDOF 12
