
 OpenBabel03132512093D

 42 44  0  0  0  0  0  0  0  0999 V2000
    0.9472    0.0453   -0.0718 C   0  0  0  0  0  0  0  0  0  0  0  0
    0.4739    1.0083   -1.0019 O   0  0  0  0  0  0  0  0  0  0  0  0
   -0.1130    0.6704   -2.1725 C   0  0  0  0  0  0  0  0  0  0  0  0
   -0.3645    1.6801   -3.0706 C   0  0  0  0  0  0  0  0  0  0  0  0
   -0.9379    1.3914   -4.2938 C   0  0  0  0  0  0  0  0  0  0  0  0
   -1.1949    2.5087   -5.2917 C   0  0  0  0  0  0  0  0  0  0  0  0
   -0.8714    3.7477   -4.9897 N   0  0  0  0  0  0  0  0  0  0  0  0
   -0.2822    4.0411   -3.7315 N   0  0  0  0  0  0  0  0  0  0  0  0
   -0.0337    2.9605   -2.7664 C   0  0  0  0  0  0  0  0  0  0  0  0
    0.5256    1.7638   -3.1546 N   0  0  0  0  0  0  0  0  0  0  0  0
    0.8842    0.8079   -2.2038 C   0  0  0  0  0  0  0  0  0  0  0  0
    0.6927    1.0566   -0.8592 N   0  0  0  0  0  0  0  0  0  0  0  0
    0.1301    2.2707   -0.4541 C   0  0  0  0  0  0  0  0  0  0  0  0
   -0.2348    3.2280   -1.4171 C   0  0  0  0  0  0  0  0  0  0  0  0
   -0.7531    4.3046   -0.7267 C   0  0  0  0  0  0  0  0  0  0  0  0
   -0.7141    4.0265    0.6429 N   0  0  0  0  0  0  0  0  0  0  0  0
   -0.2047    2.8470    0.8472 N   0  0  0  0  0  0  0  0  0  0  0  0
   -0.0017    2.2069    2.1549 C   0  0  0  0  0  0  0  0  0  0  0  0
    0.9264    3.0641    3.0000 C   0  0  0  0  0  0  0  0  0  0  0  0
   -1.3399    2.0613    2.8609 C   0  0  0  0  0  0  0  0  0  0  0  0
   -1.2768    0.0986   -4.6122 C   0  0  0  0  0  0  0  0  0  0  0  0
   -1.0571   -0.9176   -3.7084 C   0  0  0  0  0  0  0  0  0  0  0  0
   -0.4782   -0.6608   -2.4612 C   0  0  0  0  0  0  0  0  0  0  0  0
   -0.2661   -1.7026   -1.5199 O   0  0  0  0  0  0  0  0  0  0  0  0
    0.5905   -0.9244   -0.3498 H   0  0  0  0  0  0  0  0  0  0  0  0
    0.5906    0.2895    0.9070 H   0  0  0  0  0  0  0  0  0  0  0  0
    2.0172    0.0453   -0.0718 H   0  0  0  0  0  0  0  0  0  0  0  0
   -0.1160    2.6907   -2.8220 H   0  0  0  0  0  0  0  0  0  0  0  0
   -1.6389    2.2876   -6.2398 H   0  0  0  0  0  0  0  0  0  0  0  0
   -0.0314    5.0017   -3.4974 H   0  0  0  0  0  0  0  0  0  0  0  0
    1.3095   -0.1223   -2.5181 H   0  0  0  0  0  0  0  0  0  0  0  0
   -1.1246    5.2058   -1.1679 H   0  0  0  0  0  0  0  0  0  0  0  0
    0.4347    1.2400    2.0148 H   0  0  0  0  0  0  0  0  0  0  0  0
    0.4900    4.0310    3.1400 H   0  0  0  0  0  0  0  0  0  0  0  0
    1.0741    2.5982    3.9518 H   0  0  0  0  0  0  0  0  0  0  0  0
    1.8684    3.1666    2.5030 H   0  0  0  0  0  0  0  0  0  0  0  0
   -1.9933    1.4579    2.2660 H   0  0  0  0  0  0  0  0  0  0  0  0
   -1.1922    1.5954    3.8127 H   0  0  0  0  0  0  0  0  0  0  0  0
   -1.7763    3.0282    3.0009 H   0  0  0  0  0  0  0  0  0  0  0  0
   -1.7127   -0.1195   -5.5647 H   0  0  0  0  0  0  0  0  0  0  0  0
   -1.3334   -1.9191   -3.9645 H   0  0  0  0  0  0  0  0  0  0  0  0
    0.1492   -1.4985   -0.6334 H   0  0  0  0  0  0  0  0  0  0  0  0
  1  2  1  0  0  0  0
  1 25  1  0  0  0  0
  1 26  1  0  0  0  0
  1 27  1  0  0  0  0
  2  3  1  0  0  0  0
  3  4  1  0  0  0  0
  3 23  2  0  0  0  0
  4  5  2  0  0  0  0
  4 28  1  0  0  0  0
  5  6  1  0  0  0  0
  5 21  1  0  0  0  0
  6  7  2  0  0  0  0
  6 29  1  0  0  0  0
  7  8  1  0  0  0  0
  8  9  1  0  0  0  0
  8 30  1  0  0  0  0
  9 10  1  0  0  0  0
  9 14  2  0  0  0  0
 10 11  2  0  0  0  0
 11 12  1  0  0  0  0
 11 31  1  0  0  0  0
 12 13  2  0  0  0  0
 13 14  1  0  0  0  0
 13 17  1  0  0  0  0
 14 15  1  0  0  0  0
 15 16  2  0  0  0  0
 15 32  1  0  0  0  0
 16 17  1  0  0  0  0
 17 18  1  0  0  0  0
 18 19  1  0  0  0  0
 18 20  1  0  0  0  0
 18 33  1  0  0  0  0
 19 34  1  0  0  0  0
 19 35  1  0  0  0  0
 19 36  1  0  0  0  0
 20 37  1  0  0  0  0
 20 38  1  0  0  0  0
 20 39  1  0  0  0  0
 21 22  2  0  0  0  0
 21 40  1  0  0  0  0
 22 23  1  0  0  0  0
 22 41  1  0  0  0  0
 23 24  1  0  0  0  0
 24 42  1  0  0  0  0
M  END
