REMARK  Name = 
REMARK  9 active torsions:
REMARK  status: ('A' for Active; 'I' for Inactive)
REMARK    1  A    between atoms: C_1  and  O_2
REMARK    2  A    between atoms: O_2  and  C_3
REMARK    3  A    between atoms: C_5  and  C_6
REMARK    4  A    between atoms: N_7  and  N_8
REMARK    5  A    between atoms: N_8  and  C_9
REMARK    6  A    between atoms: N_17  and  C_18
REMARK    7  A    between atoms: C_18  and  C_19
REMARK    8  A    between atoms: C_18  and  C_20
REMARK    9  A    between atoms: C_23  and  O_24
REMARK                            x       y       z     vdW  Elec       q    Type
REMARK                         _______ _______ _______ _____ _____    ______ ____
ROOT
ATOM      1  N   UNL     1      -0.282   4.041  -3.732  0.00  0.00    +0.000 N 
ATOM      2  H   UNL     1      -0.031   5.002  -3.497  0.00  0.00    +0.000 HD
ENDROOT
BRANCH   1   3
ATOM      3  C   UNL     1      -0.034   2.961  -2.766  0.00  0.00    +0.000 A 
ATOM      4  N   UNL     1       0.526   1.764  -3.155  0.00  0.00    +0.000 NA
ATOM      5  C   UNL     1       0.884   0.808  -2.204  0.00  0.00    +0.000 A 
ATOM      6  N   UNL     1       0.693   1.057  -0.859  0.00  0.00    +0.000 NA
ATOM      7  C   UNL     1       0.130   2.271  -0.454  0.00  0.00    +0.000 A 
ATOM      8  C   UNL     1      -0.235   3.228  -1.417  0.00  0.00    +0.000 A 
ATOM      9  C   UNL     1      -0.753   4.305  -0.727  0.00  0.00    +0.000 A 
ATOM     10  N   UNL     1      -0.714   4.027   0.643  0.00  0.00    +0.000 NA
ATOM     11  N   UNL     1      -0.205   2.847   0.847  0.00  0.00    +0.000 N 
BRANCH  11  12
ATOM     12  C   UNL     1      -0.002   2.207   2.155  0.00  0.00    +0.000 C 
ATOM     13  C   UNL     1       0.926   3.064   3.000  0.00  0.00    +0.000 C 
ATOM     14  C   UNL     1      -1.340   2.061   2.861  0.00  0.00    +0.000 C 
ENDBRANCH  11  12
ENDBRANCH   1   3
BRANCH   1  16
ATOM     15  C   UNL     1      -1.195   2.509  -5.292  0.00  0.00    +0.000 C 
ATOM     16  N   UNL     1      -0.871   3.748  -4.990  0.00  0.00    +0.000 NA
BRANCH  15  19
ATOM     17  C   UNL     1      -0.113   0.670  -2.172  0.00  0.00    +0.000 A 
ATOM     18  C   UNL     1      -0.364   1.680  -3.071  0.00  0.00    +0.000 A 
ATOM     19  C   UNL     1      -0.938   1.391  -4.294  0.00  0.00    +0.000 A 
ATOM     20  C   UNL     1      -1.277   0.099  -4.612  0.00  0.00    +0.000 A 
ATOM     21  C   UNL     1      -1.057  -0.918  -3.708  0.00  0.00    +0.000 A 
ATOM     22  C   UNL     1      -0.478  -0.661  -2.461  0.00  0.00    +0.000 A 
BRANCH  17  24
ATOM     23  C   UNL     1       0.947   0.045  -0.072  0.00  0.00    +0.000 C 
ATOM     24  O   UNL     1       0.474   1.008  -1.002  0.00  0.00    +0.000 OA
ENDBRANCH  17  24
BRANCH  22  25
ATOM     25  O   UNL     1      -0.266  -1.703  -1.520  0.00  0.00    +0.000 OA
ATOM     26  H   UNL     1       0.149  -1.498  -0.633  0.00  0.00    +0.000 HD
ENDBRANCH  22  25
ENDBRANCH  15  19
ENDBRANCH   1  16
TORSDOF 6
