REMARK  Name = 
REMARK  10 active torsions:
REMARK  status: ('A' for Active; 'I' for Inactive)
REMARK    1  A    between atoms: C_1  and  C_2
REMARK    2  A    between atoms: C_2  and  S_3
REMARK    3  A    between atoms: S_3  and  C_6
REMARK    4  A    between atoms: C_9  and  O_10
REMARK    5  A    between atoms: O_10  and  C_11
REMARK    6  A    between atoms: C_12  and  N_13
REMARK    7  A    between atoms: C_18  and  N_19
REMARK    8  A    between atoms: N_19  and  C_20
REMARK    9  A    between atoms: N_19  and  C_21
REMARK   10  A    between atoms: C_25  and  C_26
REMARK                            x       y       z     vdW  Elec       q    Type
REMARK                         _______ _______ _______ _____ _____    ______ ____
ROOT
ATOM      1  N   UNL     1       5.533   5.181  -0.294  0.00  0.00    +0.000 N 
ATOM      2  C   UNL     1       6.993   5.225  -0.127  0.00  0.00    +0.000 A 
ATOM      3  N   UNL     1       7.447   5.799   0.995  0.00  0.00    +0.000 NA
ATOM      4  C   UNL     1       8.783   5.787   1.111  0.00  0.00    +0.000 A 
ATOM      5  C   UNL     1       9.625   5.272   0.176  0.00  0.00    +0.000 A 
ATOM      6  C   UNL     1       9.042   4.738  -0.949  0.00  0.00    +0.000 A 
ATOM      7  N   UNL     1       7.728   4.684  -1.118  0.00  0.00    +0.000 NA
ATOM      8  H   UNL     1       4.996   6.047  -0.320  0.00  0.00    +0.000 HD
ENDROOT
BRANCH   1  13
ATOM      9  C   UNL     1       2.831   2.700  -0.614  0.00  0.00    +0.000 A 
ATOM     10  C   UNL     1       3.511   1.494  -0.647  0.00  0.00    +0.000 A 
ATOM     11  C   UNL     1       4.890   1.604  -0.350  0.00  0.00    +0.000 A 
ATOM     12  C   UNL     1       5.577   2.731  -0.391  0.00  0.00    +0.000 A 
ATOM     13  C   UNL     1       4.847   3.887  -0.426  0.00  0.00    +0.000 A 
ATOM     14  C   UNL     1       3.483   3.857  -0.582  0.00  0.00    +0.000 A 
BRANCH   9  15
ATOM     15  S   UNL     1       1.021   2.700  -0.614  0.00  0.00    +0.000 S 
ATOM     16  O   UNL     1       0.511   2.475  -2.039  0.00  0.00    +0.000 OA
ATOM     17  O   UNL     1       0.511   4.047  -0.096  0.00  0.00    +0.000 OA
BRANCH  15  19
ATOM     18  C   UNL     1       0.924   0.036  -0.055  0.00  0.00    +0.000 C 
ATOM     19  C   UNL     1       0.418   1.373   0.459  0.00  0.00    +0.000 C 
ENDBRANCH  15  19
ENDBRANCH   9  15
BRANCH  12  20
ATOM     20  O   UNL     1       6.997   2.742  -0.398  0.00  0.00    +0.000 OA
ATOM     21  C   UNL     1       7.697   3.976  -0.443  0.00  0.00    +0.000 C 
ENDBRANCH  12  20
ENDBRANCH   1  13
BRANCH   6  22
ATOM     22  N   UNL     1       9.911   4.206  -2.008  0.00  0.00    +0.000 N 
ATOM     23  C   UNL     1       9.320   3.629  -3.224  0.00  0.00    +0.000 C 
BRANCH  22  24
ATOM     24  C   UNL     1      11.372   4.251  -1.852  0.00  0.00    +0.000 A 
ATOM     25  C   UNL     1      12.133   4.949  -2.775  0.00  0.00    +0.000 A 
ATOM     26  C   UNL     1      13.521   4.682  -2.693  0.00  0.00    +0.000 A 
ATOM     27  C   UNL     1      14.117   4.131  -1.652  0.00  0.00    +0.000 A 
ATOM     28  C   UNL     1      15.547   4.176  -1.486  0.00  0.00    +0.000 A 
ATOM     29  C   UNL     1      16.412   4.871  -2.524  0.00  0.00    +0.000 C 
ATOM     30  N   UNL     1      16.137   3.582  -0.372  0.00  0.00    +0.000 N 
ATOM     31  N   UNL     1      13.871   2.771   0.291  0.00  0.00    +0.000 NA
ATOM     32  C   UNL     1      13.305   3.516  -0.741  0.00  0.00    +0.000 A 
ATOM     33  C   UNL     1      11.938   3.622  -0.828  0.00  0.00    +0.000 A 
ATOM     34  H   UNL     1      17.150   3.613  -0.255  0.00  0.00    +0.000 HD
ENDBRANCH  22  24
ENDBRANCH   6  22
TORSDOF 6
