REMARK  Name = 
REMARK  10 active torsions:
REMARK  status: ('A' for Active; 'I' for Inactive)
REMARK    1  A    between atoms: C_1  and  C_2
REMARK    2  A    between atoms: C_2  and  S_3
REMARK    3  A    between atoms: S_3  and  C_6
REMARK    4  A    between atoms: C_9  and  O_10
REMARK    5  A    between atoms: O_10  and  C_11
REMARK    6  A    between atoms: C_12  and  N_13
REMARK    7  A    between atoms: C_18  and  N_19
REMARK    8  A    between atoms: N_19  and  C_20
REMARK    9  A    between atoms: N_19  and  C_21
REMARK   10  A    between atoms: C_25  and  C_26
REMARK                            x       y       z     vdW  Elec       q    Type
REMARK                         _______ _______ _______ _____ _____    ______ ____
ROOT
ATOM      1  N   UNL     1       5.676  -0.190   0.011  0.00  0.00    +0.000 N 
ATOM      2  C   UNL     1       7.136  -0.146   0.178  0.00  0.00    +0.000 A 
ATOM      3  N   UNL     1       7.590   0.429   1.299  0.00  0.00    +0.000 NA
ATOM      4  C   UNL     1       8.926   0.417   1.415  0.00  0.00    +0.000 A 
ATOM      5  C   UNL     1       9.767  -0.099   0.482  0.00  0.00    +0.000 A 
ATOM      6  C   UNL     1       9.185  -0.633  -0.643  0.00  0.00    +0.000 A 
ATOM      7  N   UNL     1       7.870  -0.688  -0.812  0.00  0.00    +0.000 NA
ATOM      8  H   UNL     1       5.139   0.676  -0.015  0.00  0.00    +0.000 HD
ENDROOT
BRANCH   1  13
ATOM      9  C   UNL     1       2.974  -2.671  -0.306  0.00  0.00    +0.000 A 
ATOM     10  C   UNL     1       3.654  -3.878  -0.338  0.00  0.00    +0.000 A 
ATOM     11  C   UNL     1       5.032  -3.767  -0.041  0.00  0.00    +0.000 A 
ATOM     12  C   UNL     1       5.720  -2.640  -0.084  0.00  0.00    +0.000 A 
ATOM     13  C   UNL     1       4.990  -1.484  -0.119  0.00  0.00    +0.000 A 
ATOM     14  C   UNL     1       3.625  -1.514  -0.276  0.00  0.00    +0.000 A 
BRANCH   9  15
ATOM     15  S   UNL     1       1.164  -2.671  -0.306  0.00  0.00    +0.000 S 
ATOM     16  O   UNL     1       0.654  -2.873   1.123  0.00  0.00    +0.000 OA
ATOM     17  O   UNL     1       0.654  -3.808  -1.195  0.00  0.00    +0.000 OA
BRANCH  15  19
ATOM     18  C   UNL     1       1.067   0.040  -0.062  0.00  0.00    +0.000 C 
ATOM     19  C   UNL     1       0.561  -1.088  -0.945  0.00  0.00    +0.000 C 
ENDBRANCH  15  19
ENDBRANCH   9  15
BRANCH  12  20
ATOM     20  O   UNL     1       7.139  -2.629  -0.091  0.00  0.00    +0.000 OA
ATOM     21  C   UNL     1       7.840  -1.395  -0.137  0.00  0.00    +0.000 C 
ENDBRANCH  12  20
ENDBRANCH   1  13
BRANCH   6  22
ATOM     22  N   UNL     1      10.054  -1.167  -1.702  0.00  0.00    +0.000 N 
ATOM     23  C   UNL     1       9.463  -1.745  -2.917  0.00  0.00    +0.000 C 
BRANCH  22  24
ATOM     24  C   UNL     1      11.515  -1.121  -1.546  0.00  0.00    +0.000 A 
ATOM     25  C   UNL     1      12.276  -0.424  -2.469  0.00  0.00    +0.000 A 
ATOM     26  C   UNL     1      13.663  -0.691  -2.388  0.00  0.00    +0.000 A 
ATOM     27  C   UNL     1      14.260  -1.241  -1.346  0.00  0.00    +0.000 A 
ATOM     28  C   UNL     1      15.690  -1.196  -1.179  0.00  0.00    +0.000 A 
ATOM     29  C   UNL     1      16.555  -0.502  -2.219  0.00  0.00    +0.000 C 
ATOM     30  N   UNL     1      16.280  -1.789  -0.066  0.00  0.00    +0.000 N 
ATOM     31  N   UNL     1      14.014  -2.600   0.598  0.00  0.00    +0.000 NA
ATOM     32  C   UNL     1      13.447  -1.856  -0.434  0.00  0.00    +0.000 A 
ATOM     33  C   UNL     1      12.080  -1.750  -0.521  0.00  0.00    +0.000 A 
ATOM     34  H   UNL     1      17.293  -1.758   0.052  0.00  0.00    +0.000 HD
ENDBRANCH  22  24
ENDBRANCH   6  22
TORSDOF 6
