REMARK  Name = 
REMARK  5 active torsions:
REMARK  status: ('A' for Active; 'I' for Inactive)
REMARK    1  A    between atoms: C_1  and  O_2
REMARK    2  A    between atoms: O_2  and  C_3
REMARK    3  A    between atoms: C_6  and  C_7
REMARK    4  A    between atoms: C_9  and  C_10
REMARK    5  A    between atoms: C_14  and  C_15
REMARK                            x       y       z     vdW  Elec       q    Type
REMARK                         _______ _______ _______ _____ _____    ______ ____
ROOT
ATOM      1  C   UNL     1       2.093   4.981   4.059  0.00  0.00    +0.000 A 
ATOM      2  C   UNL     1       3.150   5.803   3.723  0.00  0.00    +0.000 A 
ATOM      3  C   UNL     1       3.520   6.836   4.588  0.00  0.00    +0.000 A 
ATOM      4  C   UNL     1       2.780   6.997   5.753  0.00  0.00    +0.000 A 
ATOM      5  C   UNL     1       1.725   6.147   5.998  0.00  0.00    +0.000 A 
ATOM      6  N   UNL     1       1.381   5.144   5.185  0.00  0.00    +0.000 NA
ENDROOT
BRANCH   1  10
ATOM      7  C   UNL     1       0.805   2.069   1.213  0.00  0.00    +0.000 A 
ATOM      8  C   UNL     1      -0.128   2.956   1.725  0.00  0.00    +0.000 A 
ATOM      9  C   UNL     1       0.438   4.008   2.483  0.00  0.00    +0.000 A 
ATOM     10  C   UNL     1       1.659   3.997   2.985  0.00  0.00    +0.000 A 
ATOM     11  C   UNL     1       2.513   3.053   2.486  0.00  0.00    +0.000 A 
ATOM     12  C   UNL     1       2.063   2.070   1.638  0.00  0.00    +0.000 A 
BRANCH   7  14
ATOM     13  C   UNL     1       0.935  -0.075   0.014  0.00  0.00    +0.000 C 
ATOM     14  O   UNL     1       0.462   1.262   0.096  0.00  0.00    +0.000 OA
ENDBRANCH   7  14
ENDBRANCH   1  10
BRANCH   3  15
ATOM     15  C   UNL     1       4.690   7.751   4.266  0.00  0.00    +0.000 A 
ATOM     16  C   UNL     1       5.872   7.942   5.015  0.00  0.00    +0.000 A 
ATOM     17  N   UNL     1       6.675   8.807   4.417  0.00  0.00    +0.000 NA
ATOM     18  N   UNL     1       6.005   9.179   3.286  0.00  0.00    +0.000 N 
ATOM     19  C   UNL     1       4.804   8.545   3.183  0.00  0.00    +0.000 A 
ATOM     20  H   UNL     1       6.359   9.849   2.603  0.00  0.00    +0.000 HD
BRANCH  19  21
ATOM     21  C   UNL     1       3.789   8.702   2.063  0.00  0.00    +0.000 A 
ATOM     22  C   UNL     1       2.522   9.156   2.373  0.00  0.00    +0.000 A 
ATOM     23  C   UNL     1       1.568   9.277   1.360  0.00  0.00    +0.000 A 
ATOM     24  C   UNL     1       1.956   8.946   0.067  0.00  0.00    +0.000 A 
ATOM     25  C   UNL     1       3.247   8.525  -0.158  0.00  0.00    +0.000 A 
ATOM     26  N   UNL     1       4.157   8.387   0.811  0.00  0.00    +0.000 NA
ENDBRANCH  19  21
ENDBRANCH   3  15
TORSDOF 4
