REMARK  Name = 
REMARK  3 active torsions:
REMARK  status: ('A' for Active; 'I' for Inactive)
REMARK    1  A    between atoms: C_5  and  C_6
REMARK    2  A    between atoms: C_8  and  C_9
REMARK    3  A    between atoms: C_13  and  C_14
REMARK                            x       y       z     vdW  Elec       q    Type
REMARK                         _______ _______ _______ _____ _____    ______ ____
ROOT
ATOM      1  C   UNL     1      -3.466   0.011  -0.002  0.00  0.00    +0.000 A 
ATOM      2  C   UNL     1      -4.125   0.625  -1.048  0.00  0.00    +0.000 A 
ATOM      3  C   UNL     1      -5.522   0.662  -1.053  0.00  0.00    +0.000 A 
ATOM      4  C   UNL     1      -6.186   0.052   0.003  0.00  0.00    +0.000 A 
ATOM      5  C   UNL     1      -5.451  -0.559   0.993  0.00  0.00    +0.000 A 
ATOM      6  N   UNL     1      -4.115  -0.579   1.014  0.00  0.00    +0.000 NA
ENDROOT
BRANCH   1  11
ATOM      7  F   UNL     1       2.137  -0.011  -0.002  0.00  0.00    +0.000 F 
ATOM      8  C   UNL     1       0.780  -0.001   0.005  0.00  0.00    +0.000 A 
ATOM      9  C   UNL     1       0.127  -1.186   0.005  0.00  0.00    +0.000 A 
ATOM     10  C   UNL     1      -1.259  -1.177  -0.006  0.00  0.00    +0.000 A 
ATOM     11  C   UNL     1      -1.946   0.002  -0.001  0.00  0.00    +0.000 A 
ATOM     12  C   UNL     1      -1.234   1.192   0.005  0.00  0.00    +0.000 A 
ATOM     13  C   UNL     1       0.152   1.188  -0.006  0.00  0.00    +0.000 A 
ENDBRANCH   1  11
BRANCH   3  14
ATOM     14  C   UNL     1      -6.287   1.345  -2.175  0.00  0.00    +0.000 A 
ATOM     15  C   UNL     1      -7.056   2.520  -2.024  0.00  0.00    +0.000 A 
ATOM     16  N   UNL     1      -7.494   2.951  -3.195  0.00  0.00    +0.000 NA
ATOM     17  N   UNL     1      -7.015   2.047  -4.100  0.00  0.00    +0.000 N 
ATOM     18  C   UNL     1      -6.282   1.073  -3.495  0.00  0.00    +0.000 A 
ATOM     19  H   UNL     1      -7.186   2.095  -5.105  0.00  0.00    +0.000 HD
BRANCH  18  20
ATOM     20  C   UNL     1      -5.590  -0.097  -4.176  0.00  0.00    +0.000 A 
ATOM     21  C   UNL     1      -5.893  -1.411  -3.879  0.00  0.00    +0.000 A 
ATOM     22  C   UNL     1      -5.130  -2.436  -4.444  0.00  0.00    +0.000 A 
ATOM     23  C   UNL     1      -4.100  -2.075  -5.303  0.00  0.00    +0.000 A 
ATOM     24  C   UNL     1      -3.882  -0.742  -5.564  0.00  0.00    +0.000 A 
ATOM     25  N   UNL     1      -4.595   0.244  -5.010  0.00  0.00    +0.000 NA
ENDBRANCH  18  20
ENDBRANCH   3  14
TORSDOF 3
