REMARK  Name = 
REMARK  7 active torsions:
REMARK  status: ('A' for Active; 'I' for Inactive)
REMARK    1  A    between atoms: C_1  and  O_2
REMARK    2  A    between atoms: O_2  and  C_3
REMARK    3  A    between atoms: C_6  and  C_7
REMARK    4  A    between atoms: C_16  and  C_17
REMARK    5  A    between atoms: C_20  and  N_21
REMARK    6  A    between atoms: N_24  and  C_25
REMARK    7  A    between atoms: C_27  and  C_28
REMARK                            x       y       z     vdW  Elec       q    Type
REMARK                         _______ _______ _______ _____ _____    ______ ____
ROOT
ATOM      1  C   UNL     1       0.196   0.256  -7.046  0.00  0.00    +0.000 A 
ATOM      2  C   UNL     1      -1.010   0.066  -7.700  0.00  0.00    +0.000 A 
ATOM      3  C   UNL     1      -1.862   1.195  -7.671  0.00  0.00    +0.000 A 
ATOM      4  C   UNL     1      -1.739   2.205  -6.829  0.00  0.00    +0.000 A 
ATOM      5  C   UNL     1      -0.549   2.299  -6.162  0.00  0.00    +0.000 A 
ATOM      6  C   UNL     1       0.388   1.298  -6.245  0.00  0.00    +0.000 A 
ENDROOT
BRANCH   1  16
ATOM      7  C   UNL     1       1.891  -1.473  -6.302  0.00  0.00    +0.000 A 
ATOM      8  O   UNL     1       2.828  -2.245  -6.812  0.00  0.00    +0.000 OA
ATOM      9  C   UNL     1       2.881  -2.027  -8.136  0.00  0.00    +0.000 A 
ATOM     10  N   UNL     1       3.649  -2.531  -9.188  0.00  0.00    +0.000 NA
ATOM     11  C   UNL     1       3.437  -2.085 -10.447  0.00  0.00    +0.000 A 
ATOM     12  N   UNL     1       2.496  -1.144 -10.721  0.00  0.00    +0.000 NA
ATOM     13  C   UNL     1       1.719  -0.616  -9.751  0.00  0.00    +0.000 A 
ATOM     14  N   UNL     1       0.704   0.395 -10.080  0.00  0.00    +0.000 N 
ATOM     15  C   UNL     1       1.890  -1.045  -8.418  0.00  0.00    +0.000 A 
ATOM     16  C   UNL     1       1.318  -0.748  -7.252  0.00  0.00    +0.000 A 
ATOM     17  H   UNL     1       0.120   0.790  -9.343  0.00  0.00    +0.000 HD
ATOM     18  H   UNL     1       0.585   0.702 -11.045  0.00  0.00    +0.000 HD
BRANCH   7  22
ATOM     19  C   UNL     1       0.775  -1.106  -2.196  0.00  0.00    +0.000 A 
ATOM     20  C   UNL     1      -0.207  -1.400  -3.127  0.00  0.00    +0.000 A 
ATOM     21  C   UNL     1       0.298  -1.714  -4.412  0.00  0.00    +0.000 A 
ATOM     22  C   UNL     1       1.516  -1.423  -4.830  0.00  0.00    +0.000 A 
ATOM     23  C   UNL     1       2.422  -1.074  -3.867  0.00  0.00    +0.000 A 
ATOM     24  C   UNL     1       2.029  -0.876  -2.566  0.00  0.00    +0.000 A 
BRANCH  19  26
ATOM     25  C   UNL     1       0.905   0.027  -0.016  0.00  0.00    +0.000 C 
ATOM     26  O   UNL     1       0.432  -1.045  -0.819  0.00  0.00    +0.000 OA
ENDBRANCH  19  26
ENDBRANCH   7  22
ENDBRANCH   1  16
BRANCH   4  27
ATOM     27  N   UNL     1      -2.822   3.176  -6.620  0.00  0.00    +0.000 N 
ATOM     28  C   UNL     1      -4.086   3.038  -7.358  0.00  0.00    +0.000 C 
ATOM     29  O   UNL     1      -5.023   3.877  -7.177  0.00  0.00    +0.000 OA
ATOM     30  N   UNL     1      -4.266   1.928  -8.305  0.00  0.00    +0.000 N 
ATOM     31  H   UNL     1      -2.698   3.946  -5.963  0.00  0.00    +0.000 HD
ATOM     32  H   UNL     1      -5.143   1.832  -8.817  0.00  0.00    +0.000 HD
BRANCH  30  33
ATOM     33  C   UNL     1      -3.182   0.957  -8.514  0.00  0.00    +0.000 A 
ATOM     34  C   UNL     1      -2.855   0.578  -9.806  0.00  0.00    +0.000 A 
ATOM     35  C   UNL     1      -2.015  -0.558  -9.874  0.00  0.00    +0.000 A 
ATOM     36  C   UNL     1      -1.300  -1.023  -8.866  0.00  0.00    +0.000 A 
ATOM     37  C   UNL     1      -1.628  -0.559  -7.623  0.00  0.00    +0.000 A 
ATOM     38  C   UNL     1      -2.536   0.460  -7.466  0.00  0.00    +0.000 A 
ATOM     39  F   UNL     1      -2.770   0.953  -6.253  0.00  0.00    +0.000 F 
BRANCH  35  40
ATOM     40  C   UNL     1      -1.931  -1.296 -11.201  0.00  0.00    +0.000 C 
ATOM     41  F   UNL     1      -3.139  -1.734 -11.543  0.00  0.00    +0.000 F 
ATOM     42  F   UNL     1      -1.477  -0.470 -12.139  0.00  0.00    +0.000 F 
ATOM     43  F   UNL     1      -1.102  -2.329 -11.082  0.00  0.00    +0.000 F 
ENDBRANCH  35  40
ENDBRANCH  30  33
ENDBRANCH   4  27
TORSDOF 6
