REMARK  Name = 
REMARK  7 active torsions:
REMARK  status: ('A' for Active; 'I' for Inactive)
REMARK    1  A    between atoms: C_1  and  O_2
REMARK    2  A    between atoms: O_2  and  C_3
REMARK    3  A    between atoms: C_6  and  C_7
REMARK    4  A    between atoms: C_16  and  C_17
REMARK    5  A    between atoms: C_20  and  N_21
REMARK    6  A    between atoms: N_24  and  C_25
REMARK    7  A    between atoms: C_27  and  C_28
REMARK                            x       y       z     vdW  Elec       q    Type
REMARK                         _______ _______ _______ _____ _____    ______ ____
ROOT
ATOM      1  C   UNL     1       0.186   1.737  -6.682  0.00  0.00    +0.000 A 
ATOM      2  C   UNL     1      -1.027   1.656  -7.346  0.00  0.00    +0.000 A 
ATOM      3  C   UNL     1      -1.901   2.736  -7.078  0.00  0.00    +0.000 A 
ATOM      4  C   UNL     1      -1.782   3.559  -6.052  0.00  0.00    +0.000 A 
ATOM      5  C   UNL     1      -0.583   3.543  -5.395  0.00  0.00    +0.000 A 
ATOM      6  C   UNL     1       0.372   2.600  -5.691  0.00  0.00    +0.000 A 
ENDROOT
BRANCH   1  16
ATOM      7  C   UNL     1       1.938  -0.066  -6.381  0.00  0.00    +0.000 A 
ATOM      8  O   UNL     1       2.866  -0.691  -7.077  0.00  0.00    +0.000 OA
ATOM      9  C   UNL     1       2.861  -0.200  -8.327  0.00  0.00    +0.000 A 
ATOM     10  N   UNL     1       3.593  -0.453  -9.488  0.00  0.00    +0.000 NA
ATOM     11  C   UNL     1       3.321   0.240 -10.617  0.00  0.00    +0.000 A 
ATOM     12  N   UNL     1       2.354   1.194 -10.653  0.00  0.00    +0.000 NA
ATOM     13  C   UNL     1       1.609   1.487  -9.565  0.00  0.00    +0.000 A 
ATOM     14  N   UNL     1       0.565   2.519  -9.637  0.00  0.00    +0.000 N 
ATOM     15  C   UNL     1       1.843   0.794  -8.359  0.00  0.00    +0.000 A 
ATOM     16  C   UNL     1       1.315   0.827  -7.136  0.00  0.00    +0.000 A 
ATOM     17  H   UNL     1       0.006   2.737  -8.812  0.00  0.00    +0.000 HD
ATOM     18  H   UNL     1       0.400   3.018 -10.511  0.00  0.00    +0.000 HD
BRANCH   7  22
ATOM     19  C   UNL     1       0.823  -0.716  -2.310  0.00  0.00    +0.000 A 
ATOM     20  C   UNL     1      -0.161  -0.760  -3.284  0.00  0.00    +0.000 A 
ATOM     21  C   UNL     1       0.341  -0.752  -4.607  0.00  0.00    +0.000 A 
ATOM     22  C   UNL     1       1.563  -0.379  -4.942  0.00  0.00    +0.000 A 
ATOM     23  C   UNL     1       2.471  -0.287  -3.924  0.00  0.00    +0.000 A 
ATOM     24  C   UNL     1       2.079  -0.414  -2.614  0.00  0.00    +0.000 A 
BRANCH  19  26
ATOM     25  C   UNL     1       0.953  -0.066   0.059  0.00  0.00    +0.000 C 
ATOM     26  O   UNL     1       0.479  -0.945  -0.951  0.00  0.00    +0.000 OA
ENDBRANCH  19  26
ENDBRANCH   7  22
ENDBRANCH   1  16
BRANCH   4  27
ATOM     27  N   UNL     1      -2.880   4.444  -5.637  0.00  0.00    +0.000 N 
ATOM     28  C   UNL     1      -4.154   4.428  -6.371  0.00  0.00    +0.000 C 
ATOM     29  O   UNL     1      -5.103   5.193  -6.012  0.00  0.00    +0.000 OA
ATOM     30  N   UNL     1      -4.329   3.528  -7.520  0.00  0.00    +0.000 N 
ATOM     31  H   UNL     1      -2.759   5.068  -4.840  0.00  0.00    +0.000 HD
ATOM     32  H   UNL     1      -5.213   3.517  -8.029  0.00  0.00    +0.000 HD
BRANCH  30  33
ATOM     33  C   UNL     1      -3.231   2.643  -7.935  0.00  0.00    +0.000 A 
ATOM     34  C   UNL     1      -2.928   2.565  -9.284  0.00  0.00    +0.000 A 
ATOM     35  C   UNL     1      -2.061   1.498  -9.617  0.00  0.00    +0.000 A 
ATOM     36  C   UNL     1      -1.307   0.848  -8.749  0.00  0.00    +0.000 A 
ATOM     37  C   UNL     1      -1.613   1.020  -7.428  0.00  0.00    +0.000 A 
ATOM     38  C   UNL     1      -2.543   1.951  -7.034  0.00  0.00    +0.000 A 
ATOM     39  F   UNL     1      -2.758   2.161  -5.738  0.00  0.00    +0.000 F 
BRANCH  35  40
ATOM     40  C   UNL     1      -1.993   1.070 -11.073  0.00  0.00    +0.000 C 
ATOM     41  F   UNL     1      -3.199   0.679 -11.477  0.00  0.00    +0.000 F 
ATOM     42  F   UNL     1      -1.587   2.094 -11.818  0.00  0.00    +0.000 F 
ATOM     43  F   UNL     1      -1.135   0.061 -11.200  0.00  0.00    +0.000 F 
ENDBRANCH  35  40
ENDBRANCH  30  33
ENDBRANCH   4  27
TORSDOF 6
