
 OpenBabel03132514253D

 58 62  0  0  0  0  0  0  0  0999 V2000
    0.9528   -0.0660    0.0585 C   0  0  0  0  0  0  0  0  0  0  0  0
    0.4794   -0.9450   -0.9513 O   0  0  0  0  0  0  0  0  0  0  0  0
    0.8225   -0.7159   -2.3100 C   0  0  0  0  0  0  0  0  0  0  0  0
   -0.1611   -0.7603   -3.2843 C   0  0  0  0  0  0  0  0  0  0  0  0
    0.3414   -0.7524   -4.6070 C   0  0  0  0  0  0  0  0  0  0  0  0
    1.5629   -0.3785   -4.9419 C   0  0  0  0  0  0  0  0  0  0  0  0
    1.9384   -0.0661   -6.3813 C   0  0  0  0  0  0  0  0  0  0  0  0
    2.8663   -0.6912   -7.0769 O   0  0  0  0  0  0  0  0  0  0  0  0
    2.8613   -0.1999   -8.3266 C   0  0  0  0  0  0  0  0  0  0  0  0
    3.5930   -0.4534   -9.4884 N   0  0  0  0  0  0  0  0  0  0  0  0
    3.3213    0.2396  -10.6167 C   0  0  0  0  0  0  0  0  0  0  0  0
    2.3542    1.1939  -10.6527 N   0  0  0  0  0  0  0  0  0  0  0  0
    1.6094    1.4873   -9.5648 C   0  0  0  0  0  0  0  0  0  0  0  0
    0.5653    2.5195   -9.6369 N   0  0  0  0  0  0  0  0  0  0  0  0
    1.8430    0.7937   -8.3588 C   0  0  0  0  0  0  0  0  0  0  0  0
    1.3152    0.8268   -7.1361 C   0  0  0  0  0  0  0  0  0  0  0  0
    0.1859    1.7374   -6.6824 C   0  0  0  0  0  0  0  0  0  0  0  0
   -1.0274    1.6559   -7.3456 C   0  0  0  0  0  0  0  0  0  0  0  0
   -1.9007    2.7365   -7.0780 C   0  0  0  0  0  0  0  0  0  0  0  0
   -1.7820    3.5589   -6.0516 C   0  0  0  0  0  0  0  0  0  0  0  0
   -2.8804    4.4435   -5.6368 N   0  0  0  0  0  0  0  0  0  0  0  0
   -4.1538    4.4280   -6.3710 C   0  0  0  0  0  0  0  0  0  0  0  0
   -5.1034    5.1928   -6.0124 O   0  0  0  0  0  0  0  0  0  0  0  0
   -4.3289    3.5278   -7.5199 N   0  0  0  0  0  0  0  0  0  0  0  0
   -3.2306    2.6433   -7.9346 C   0  0  0  0  0  0  0  0  0  0  0  0
   -2.9281    2.5654   -9.2841 C   0  0  0  0  0  0  0  0  0  0  0  0
   -2.0611    1.4978   -9.6166 C   0  0  0  0  0  0  0  0  0  0  0  0
   -1.9931    1.0696  -11.0735 C   0  0  0  0  0  0  0  0  0  0  0  0
   -3.1985    0.6787  -11.4774 F   0  0  0  0  0  0  0  0  0  0  0  0
   -1.5866    2.0939  -11.8181 F   0  0  0  0  0  0  0  0  0  0  0  0
   -1.1347    0.0615  -11.1996 F   0  0  0  0  0  0  0  0  0  0  0  0
   -1.3068    0.8476   -8.7493 C   0  0  0  0  0  0  0  0  0  0  0  0
   -1.6133    1.0196   -7.4279 C   0  0  0  0  0  0  0  0  0  0  0  0
   -2.5435    1.9509   -7.0337 C   0  0  0  0  0  0  0  0  0  0  0  0
   -2.7576    2.1607   -5.7379 F   0  0  0  0  0  0  0  0  0  0  0  0
   -0.5826    3.5434   -5.3954 C   0  0  0  0  0  0  0  0  0  0  0  0
    0.3722    2.6004   -5.6906 C   0  0  0  0  0  0  0  0  0  0  0  0
    2.4715   -0.2875   -3.9243 C   0  0  0  0  0  0  0  0  0  0  0  0
    2.0794   -0.4139   -2.6135 C   0  0  0  0  0  0  0  0  0  0  0  0
    0.5961   -0.3937    1.0126 H   0  0  0  0  0  0  0  0  0  0  0  0
    0.5961    0.9242   -0.1348 H   0  0  0  0  0  0  0  0  0  0  0  0
    2.0228   -0.0660    0.0585 H   0  0  0  0  0  0  0  0  0  0  0  0
   -1.2061   -0.7972   -3.0572 H   0  0  0  0  0  0  0  0  0  0  0  0
   -0.3139   -1.0715   -5.3903 H   0  0  0  0  0  0  0  0  0  0  0  0
    3.8818    0.0316  -11.5041 H   0  0  0  0  0  0  0  0  0  0  0  0
    0.0056    2.7372   -8.8124 H   0  0  0  0  0  0  0  0  0  0  0  0
    0.4004    3.0180  -10.5113 H   0  0  0  0  0  0  0  0  0  0  0  0
   -1.2812    0.8489   -8.0008 H   0  0  0  0  0  0  0  0  0  0  0  0
   -2.7138    2.8987   -7.7544 H   0  0  0  0  0  0  0  0  0  0  0  0
   -2.7589    5.0681   -4.8396 H   0  0  0  0  0  0  0  0  0  0  0  0
   -5.2125    3.5171   -8.0293 H   0  0  0  0  0  0  0  0  0  0  0  0
   -3.3151    3.2504  -10.0093 H   0  0  0  0  0  0  0  0  0  0  0  0
   -0.4993    0.2199   -9.0637 H   0  0  0  0  0  0  0  0  0  0  0  0
   -1.1217    0.4203   -6.6903 H   0  0  0  0  0  0  0  0  0  0  0  0
   -0.3846    4.2760   -4.6411 H   0  0  0  0  0  0  0  0  0  0  0  0
    1.2740    2.5612   -5.1160 H   0  0  0  0  0  0  0  0  0  0  0  0
    3.5027   -0.1154   -4.1520 H   0  0  0  0  0  0  0  0  0  0  0  0
    2.7935   -0.2677   -1.8301 H   0  0  0  0  0  0  0  0  0  0  0  0
  1  2  1  0  0  0  0
  1 40  1  0  0  0  0
  1 41  1  0  0  0  0
  1 42  1  0  0  0  0
  2  3  1  0  0  0  0
  3  4  1  0  0  0  0
  3 39  2  0  0  0  0
  4  5  2  0  0  0  0
  4 43  1  0  0  0  0
  5  6  1  0  0  0  0
  5 44  1  0  0  0  0
  6  7  1  0  0  0  0
  6 38  2  0  0  0  0
  7  8  1  0  0  0  0
  7 16  2  0  0  0  0
  8  9  1  0  0  0  0
  9 10  1  0  0  0  0
  9 15  2  0  0  0  0
 10 11  2  0  0  0  0
 11 12  1  0  0  0  0
 11 45  1  0  0  0  0
 12 13  2  0  0  0  0
 13 14  1  0  0  0  0
 13 15  1  0  0  0  0
 14 46  1  0  0  0  0
 14 47  1  0  0  0  0
 15 16  1  0  0  0  0
 16 17  1  0  0  0  0
 17 18  1  0  0  0  0
 17 37  2  0  0  0  0
 18 19  2  0  0  0  0
 18 48  1  0  0  0  0
 19 20  1  0  0  0  0
 19 49  1  0  0  0  0
 20 21  1  0  0  0  0
 20 36  2  0  0  0  0
 21 22  1  0  0  0  0
 21 50  1  0  0  0  0
 22 23  2  0  0  0  0
 22 24  1  0  0  0  0
 24 25  1  0  0  0  0
 24 51  1  0  0  0  0
 25 26  1  0  0  0  0
 25 34  2  0  0  0  0
 26 27  2  0  0  0  0
 26 52  1  0  0  0  0
 27 28  1  0  0  0  0
 27 32  1  0  0  0  0
 28 29  1  0  0  0  0
 28 30  1  0  0  0  0
 28 31  1  0  0  0  0
 32 33  2  0  0  0  0
 32 53  1  0  0  0  0
 33 34  1  0  0  0  0
 33 54  1  0  0  0  0
 34 35  1  0  0  0  0
 36 37  1  0  0  0  0
 36 55  1  0  0  0  0
 37 56  1  0  0  0  0
 38 39  1  0  0  0  0
 38 57  1  0  0  0  0
 39 58  1  0  0  0  0
M  END
