
 OpenBabel03132512093D

 58 62  0  0  0  0  0  0  0  0999 V2000
    0.9051    0.0269   -0.0163 C   0  0  0  0  0  0  0  0  0  0  0  0
    0.4317   -1.0446   -0.8189 O   0  0  0  0  0  0  0  0  0  0  0  0
    0.7748   -1.1059   -2.1955 C   0  0  0  0  0  0  0  0  0  0  0  0
   -0.2068   -1.3999   -3.1275 C   0  0  0  0  0  0  0  0  0  0  0  0
    0.2976   -1.7145   -4.4115 C   0  0  0  0  0  0  0  0  0  0  0  0
    1.5158   -1.4230   -4.8297 C   0  0  0  0  0  0  0  0  0  0  0  0
    1.8905   -1.4728   -6.3020 C   0  0  0  0  0  0  0  0  0  0  0  0
    2.8277   -2.2453   -6.8125 O   0  0  0  0  0  0  0  0  0  0  0  0
    2.8815   -2.0269   -8.1364 C   0  0  0  0  0  0  0  0  0  0  0  0
    3.6493   -2.5306   -9.1881 N   0  0  0  0  0  0  0  0  0  0  0  0
    3.4371   -2.0852  -10.4466 C   0  0  0  0  0  0  0  0  0  0  0  0
    2.4962   -1.1437  -10.7213 N   0  0  0  0  0  0  0  0  0  0  0  0
    1.7190   -0.6163   -9.7506 C   0  0  0  0  0  0  0  0  0  0  0  0
    0.7044    0.3951  -10.0800 N   0  0  0  0  0  0  0  0  0  0  0  0
    1.8902   -1.0454   -8.4177 C   0  0  0  0  0  0  0  0  0  0  0  0
    1.3183   -0.7478   -7.2519 C   0  0  0  0  0  0  0  0  0  0  0  0
    0.1961    0.2564   -7.0458 C   0  0  0  0  0  0  0  0  0  0  0  0
   -1.0099    0.0662   -7.7001 C   0  0  0  0  0  0  0  0  0  0  0  0
   -1.8622    1.1952   -7.6708 C   0  0  0  0  0  0  0  0  0  0  0  0
   -1.7388    2.2052   -6.8289 C   0  0  0  0  0  0  0  0  0  0  0  0
   -2.8225    3.1762   -6.6199 N   0  0  0  0  0  0  0  0  0  0  0  0
   -4.0861    3.0375   -7.3580 C   0  0  0  0  0  0  0  0  0  0  0  0
   -5.0230    3.8770   -7.1773 O   0  0  0  0  0  0  0  0  0  0  0  0
   -4.2661    1.9279   -8.3052 N   0  0  0  0  0  0  0  0  0  0  0  0
   -3.1824    0.9569   -8.5142 C   0  0  0  0  0  0  0  0  0  0  0  0
   -2.8548    0.5784   -9.8057 C   0  0  0  0  0  0  0  0  0  0  0  0
   -2.0152   -0.5584   -9.8745 C   0  0  0  0  0  0  0  0  0  0  0  0
   -1.9307   -1.2959  -11.2009 C   0  0  0  0  0  0  0  0  0  0  0  0
   -3.1392   -1.7337  -11.5426 F   0  0  0  0  0  0  0  0  0  0  0  0
   -1.4767   -0.4699  -12.1392 F   0  0  0  0  0  0  0  0  0  0  0  0
   -1.1021   -2.3294  -11.0815 F   0  0  0  0  0  0  0  0  0  0  0  0
   -1.3000   -1.0233   -8.8663 C   0  0  0  0  0  0  0  0  0  0  0  0
   -1.6281   -0.5591   -7.6229 C   0  0  0  0  0  0  0  0  0  0  0  0
   -2.5363    0.4599   -7.4660 C   0  0  0  0  0  0  0  0  0  0  0  0
   -2.7704    0.9531   -6.2532 F   0  0  0  0  0  0  0  0  0  0  0  0
   -0.5488    2.2991   -6.1621 C   0  0  0  0  0  0  0  0  0  0  0  0
    0.3884    1.2978   -6.2448 C   0  0  0  0  0  0  0  0  0  0  0  0
    2.4220   -1.0739   -3.8671 C   0  0  0  0  0  0  0  0  0  0  0  0
    2.0291   -0.8759   -2.5655 C   0  0  0  0  0  0  0  0  0  0  0  0
    0.5484   -0.0932    0.9853 H   0  0  0  0  0  0  0  0  0  0  0  0
    0.5484    0.9543   -0.4131 H   0  0  0  0  0  0  0  0  0  0  0  0
    1.9751    0.0269   -0.0163 H   0  0  0  0  0  0  0  0  0  0  0  0
   -1.2517   -1.3899   -2.8974 H   0  0  0  0  0  0  0  0  0  0  0  0
   -0.3533   -2.2242   -5.0909 H   0  0  0  0  0  0  0  0  0  0  0  0
    4.0249   -2.4839  -11.2469 H   0  0  0  0  0  0  0  0  0  0  0  0
    0.1201    0.7902   -9.3432 H   0  0  0  0  0  0  0  0  0  0  0  0
    0.5848    0.7019  -11.0454 H   0  0  0  0  0  0  0  0  0  0  0  0
   -1.2730   -0.8512   -8.1839 H   0  0  0  0  0  0  0  0  0  0  0  0
   -2.6625    1.2334   -8.3801 H   0  0  0  0  0  0  0  0  0  0  0  0
   -2.6976    3.9462   -5.9626 H   0  0  0  0  0  0  0  0  0  0  0  0
   -5.1429    1.8316   -8.8174 H   0  0  0  0  0  0  0  0  0  0  0  0
   -3.2048    1.0986  -10.6728 H   0  0  0  0  0  0  0  0  0  0  0  0
   -0.5064   -1.7255   -9.0147 H   0  0  0  0  0  0  0  0  0  0  0  0
   -1.1711   -0.9957   -6.7595 H   0  0  0  0  0  0  0  0  0  0  0  0
   -0.3446    3.1648   -5.5673 H   0  0  0  0  0  0  0  0  0  0  0  0
    1.2814    1.3578   -5.6584 H   0  0  0  0  0  0  0  0  0  0  0  0
    3.4518   -0.9533   -4.1313 H   0  0  0  0  0  0  0  0  0  0  0  0
    2.7405   -0.5332   -1.8433 H   0  0  0  0  0  0  0  0  0  0  0  0
  1  2  1  0  0  0  0
  1 40  1  0  0  0  0
  1 41  1  0  0  0  0
  1 42  1  0  0  0  0
  2  3  1  0  0  0  0
  3  4  1  0  0  0  0
  3 39  2  0  0  0  0
  4  5  2  0  0  0  0
  4 43  1  0  0  0  0
  5  6  1  0  0  0  0
  5 44  1  0  0  0  0
  6  7  1  0  0  0  0
  6 38  2  0  0  0  0
  7  8  1  0  0  0  0
  7 16  2  0  0  0  0
  8  9  1  0  0  0  0
  9 10  1  0  0  0  0
  9 15  2  0  0  0  0
 10 11  2  0  0  0  0
 11 12  1  0  0  0  0
 11 45  1  0  0  0  0
 12 13  2  0  0  0  0
 13 14  1  0  0  0  0
 13 15  1  0  0  0  0
 14 46  1  0  0  0  0
 14 47  1  0  0  0  0
 15 16  1  0  0  0  0
 16 17  1  0  0  0  0
 17 18  1  0  0  0  0
 17 37  2  0  0  0  0
 18 19  2  0  0  0  0
 18 48  1  0  0  0  0
 19 20  1  0  0  0  0
 19 49  1  0  0  0  0
 20 21  1  0  0  0  0
 20 36  2  0  0  0  0
 21 22  1  0  0  0  0
 21 50  1  0  0  0  0
 22 23  2  0  0  0  0
 22 24  1  0  0  0  0
 24 25  1  0  0  0  0
 24 51  1  0  0  0  0
 25 26  1  0  0  0  0
 25 34  2  0  0  0  0
 26 27  2  0  0  0  0
 26 52  1  0  0  0  0
 27 28  1  0  0  0  0
 27 32  1  0  0  0  0
 28 29  1  0  0  0  0
 28 30  1  0  0  0  0
 28 31  1  0  0  0  0
 32 33  2  0  0  0  0
 32 53  1  0  0  0  0
 33 34  1  0  0  0  0
 33 54  1  0  0  0  0
 34 35  1  0  0  0  0
 36 37  1  0  0  0  0
 36 55  1  0  0  0  0
 37 56  1  0  0  0  0
 38 39  1  0  0  0  0
 38 57  1  0  0  0  0
 39 58  1  0  0  0  0
M  END
