REMARK  Name = 
REMARK  7 active torsions:
REMARK  status: ('A' for Active; 'I' for Inactive)
REMARK    1  A    between atoms: C_1  and  C_2
REMARK    2  A    between atoms: C_6  and  N_7
REMARK    3  A    between atoms: N_7  and  C_8
REMARK    4  A    between atoms: N_14  and  C_15
REMARK    5  A    between atoms: C_19  and  S_20
REMARK    6  A    between atoms: S_20  and  N_21
REMARK    7  A    between atoms: N_29  and  C_30
REMARK                            x       y       z     vdW  Elec       q    Type
REMARK                         _______ _______ _______ _____ _____    ______ ____
ROOT
ATOM      1  N   UNL     1       0.178   5.006  -4.353  0.00  0.00    +0.000 N 
ATOM      2  C   UNL     1      -0.306   4.918  -5.738  0.00  0.00    +0.000 C 
ATOM      3  C   UNL     1       0.555   6.309  -3.787  0.00  0.00    +0.000 A 
ATOM      4  C   UNL     1      -0.407   7.292  -3.584  0.00  0.00    +0.000 A 
ATOM      5  C   UNL     1      -0.174   8.195  -2.523  0.00  0.00    +0.000 A 
ATOM      6  N   UNL     1       1.155   8.550  -2.295  0.00  0.00    +0.000 NA
ATOM      7  C   UNL     1       2.099   7.730  -2.705  0.00  0.00    +0.000 A 
ATOM      8  N   UNL     1       3.510   8.078  -2.483  0.00  0.00    +0.000 N 
ATOM      9  N   UNL     1       1.776   6.531  -3.349  0.00  0.00    +0.000 NA
ATOM     10  H   UNL     1       4.247   7.447  -2.798  0.00  0.00    +0.000 HD
ENDROOT
BRANCH   1  16
ATOM     11  C   UNL     1       0.993  -0.082  -0.057  0.00  0.00    +0.000 C 
ATOM     12  C   UNL     1       0.486   0.301  -1.438  0.00  0.00    +0.000 A 
ATOM     13  C   UNL     1       0.495   1.545  -1.943  0.00  0.00    +0.000 A 
ATOM     14  C   UNL     1       0.842   2.806  -1.453  0.00  0.00    +0.000 A 
ATOM     15  C   UNL     1       0.735   3.890  -2.255  0.00  0.00    +0.000 A 
ATOM     16  C   UNL     1       0.286   3.790  -3.533  0.00  0.00    +0.000 A 
ATOM     17  C   UNL     1      -0.065   2.601  -4.069  0.00  0.00    +0.000 A 
ATOM     18  C   UNL     1       0.030   1.433  -3.284  0.00  0.00    +0.000 A 
ATOM     19  N   UNL     1      -0.224   0.141  -3.483  0.00  0.00    +0.000 NA
ATOM     20  N   UNL     1       0.053  -0.522  -2.370  0.00  0.00    +0.000 N 
ATOM     21  C   UNL     1      -0.101  -1.974  -2.200  0.00  0.00    +0.000 C 
ENDBRANCH   1  16
BRANCH   8  22
ATOM     22  C   UNL     1       3.859   9.336  -1.807  0.00  0.00    +0.000 A 
ATOM     23  C   UNL     1       3.393   9.486  -0.566  0.00  0.00    +0.000 A 
ATOM     24  C   UNL     1       3.787  10.631   0.182  0.00  0.00    +0.000 A 
ATOM     25  C   UNL     1       4.396  11.710  -0.480  0.00  0.00    +0.000 A 
ATOM     26  C   UNL     1       4.843  11.561  -1.692  0.00  0.00    +0.000 A 
ATOM     27  C   UNL     1       4.727  10.322  -2.337  0.00  0.00    +0.000 A 
BRANCH  26  28
ATOM     28  S   UNL     1       5.615  12.956  -2.549  0.00  0.00    +0.000 S 
ATOM     29  O   UNL     1       6.838  13.426  -1.758  0.00  0.00    +0.000 OA
ATOM     30  O   UNL     1       6.050  12.518  -3.949  0.00  0.00    +0.000 OA
BRANCH  28  31
ATOM     31  N   UNL     1       4.458  14.276  -2.680  0.00  0.00    +0.000 NA
ATOM     32  H   UNL     1       4.893  15.063  -3.163  0.00  0.00    +0.000 HD
ATOM     33  H   UNL     1       3.643  13.963  -3.207  0.00  0.00    +0.000 HD
ENDBRANCH  28  31
ENDBRANCH  26  28
ENDBRANCH   8  22
TORSDOF 4
