REMARK  Name = 
REMARK  5 active torsions:
REMARK  status: ('A' for Active; 'I' for Inactive)
REMARK    1  A    between atoms: C_2  and  C_10
REMARK    2  A    between atoms: N_3  and  C_4
REMARK    3  A    between atoms: C_13  and  C_14
REMARK    4  A    between atoms: C_16  and  C_17
REMARK    5  A    between atoms: C_21  and  C_22
REMARK                            x       y       z     vdW  Elec       q    Type
REMARK                         _______ _______ _______ _____ _____    ______ ____
ROOT
ATOM      1  C   UNL     1       5.155   1.595  -4.818  0.00  0.00    +0.000 A 
ATOM      2  C   UNL     1       5.704   2.860  -4.900  0.00  0.00    +0.000 A 
ATOM      3  C   UNL     1       6.266   3.289  -6.105  0.00  0.00    +0.000 A 
ATOM      4  C   UNL     1       6.259   2.399  -7.172  0.00  0.00    +0.000 A 
ATOM      5  C   UNL     1       5.712   1.148  -6.997  0.00  0.00    +0.000 A 
ATOM      6  N   UNL     1       5.155   0.740  -5.853  0.00  0.00    +0.000 NA
ENDROOT
BRANCH   1  10
ATOM      7  C   UNL     1       3.076   0.341  -1.304  0.00  0.00    +0.000 A 
ATOM      8  C   UNL     1       4.119  -0.441  -1.775  0.00  0.00    +0.000 A 
ATOM      9  C   UNL     1       4.875   0.171  -2.803  0.00  0.00    +0.000 A 
ATOM     10  C   UNL     1       4.466   1.199  -3.523  0.00  0.00    +0.000 A 
ATOM     11  C   UNL     1       3.389   1.890  -3.040  0.00  0.00    +0.000 A 
ATOM     12  C   UNL     1       2.678   1.425  -1.960  0.00  0.00    +0.000 A 
BRANCH   7  14
ATOM     13  O   UNL     1       1.045  -0.071  -0.054  0.00  0.00    +0.000 OA
ATOM     14  C   UNL     1       2.316  -0.071  -0.054  0.00  0.00    +0.000 C 
ATOM     15  N   UNL     1       3.051  -0.469   1.155  0.00  0.00    +0.000 N 
ATOM     16  H   UNL     1       2.541  -0.745   1.994  0.00  0.00    +0.000 HD
BRANCH  15  17
ATOM     17  C   UNL     1       4.521  -0.469   1.155  0.00  0.00    +0.000 C 
ATOM     18  C   UNL     1       5.017  -1.769   0.526  0.00  0.00    +0.000 C 
ATOM     19  C   UNL     1       6.538  -1.875   0.686  0.00  0.00    +0.000 C 
ATOM     20  O   UNL     1       6.920  -1.737   2.070  0.00  0.00    +0.000 OA
ATOM     21  C   UNL     1       6.513  -0.475   2.637  0.00  0.00    +0.000 C 
ATOM     22  C   UNL     1       5.016  -0.315   2.587  0.00  0.00    +0.000 C 
ENDBRANCH  15  17
ENDBRANCH   7  14
ENDBRANCH   1  10
BRANCH   3  23
ATOM     23  C   UNL     1       6.863   4.679  -6.244  0.00  0.00    +0.000 A 
ATOM     24  C   UNL     1       6.465   5.702  -7.134  0.00  0.00    +0.000 A 
ATOM     25  N   UNL     1       7.205   6.785  -6.970  0.00  0.00    +0.000 NA
ATOM     26  N   UNL     1       8.086   6.457  -5.978  0.00  0.00    +0.000 N 
ATOM     27  C   UNL     1       7.887   5.187  -5.530  0.00  0.00    +0.000 A 
ATOM     28  H   UNL     1       8.805   7.085  -5.618  0.00  0.00    +0.000 HD
BRANCH  27  29
ATOM     29  C   UNL     1       8.668   4.478  -4.436  0.00  0.00    +0.000 A 
ATOM     30  C   UNL     1       9.361   3.313  -4.699  0.00  0.00    +0.000 A 
ATOM     31  C   UNL     1      10.147   2.740  -3.696  0.00  0.00    +0.000 A 
ATOM     32  C   UNL     1      10.207   3.394  -2.472  0.00  0.00    +0.000 A 
ATOM     33  C   UNL     1       9.504   4.565  -2.303  0.00  0.00    +0.000 A 
ATOM     34  N   UNL     1       8.733   5.106  -3.252  0.00  0.00    +0.000 NA
ENDBRANCH  27  29
ENDBRANCH   3  23
TORSDOF 5
