
 OpenBabel03132512093D

 55 59  0  0  0  0  0  0  0  0999 V2000
    1.0454   -0.0708   -0.0541 O   0  0  0  0  0  0  0  0  0  0  0  0
    2.3163   -0.0708   -0.0541 C   0  0  0  0  0  0  0  0  0  0  0  0
    3.0513   -0.4688    1.1551 N   0  0  0  0  0  0  0  0  0  0  0  0
    4.5213   -0.4688    1.1551 C   0  0  0  0  0  0  0  0  0  0  0  0
    5.0168   -1.7688    0.5262 C   0  0  0  0  0  0  0  0  0  0  0  0
    6.5380   -1.8750    0.6862 C   0  0  0  0  0  0  0  0  0  0  0  0
    6.9204   -1.7368    2.0700 O   0  0  0  0  0  0  0  0  0  0  0  0
    6.5130   -0.4751    2.6369 C   0  0  0  0  0  0  0  0  0  0  0  0
    5.0155   -0.3151    2.5871 C   0  0  0  0  0  0  0  0  0  0  0  0
    3.0763    0.3408   -1.3045 C   0  0  0  0  0  0  0  0  0  0  0  0
    4.1188   -0.4406   -1.7748 C   0  0  0  0  0  0  0  0  0  0  0  0
    4.8747    0.1705   -2.8030 C   0  0  0  0  0  0  0  0  0  0  0  0
    4.4657    1.1994   -3.5228 C   0  0  0  0  0  0  0  0  0  0  0  0
    5.1551    1.5950   -4.8184 C   0  0  0  0  0  0  0  0  0  0  0  0
    5.7041    2.8596   -4.8998 C   0  0  0  0  0  0  0  0  0  0  0  0
    6.2655    3.2886   -6.1051 C   0  0  0  0  0  0  0  0  0  0  0  0
    6.8626    4.6795   -6.2442 C   0  0  0  0  0  0  0  0  0  0  0  0
    6.4648    5.7018   -7.1341 C   0  0  0  0  0  0  0  0  0  0  0  0
    7.2053    6.7853   -6.9695 N   0  0  0  0  0  0  0  0  0  0  0  0
    8.0865    6.4569   -5.9780 N   0  0  0  0  0  0  0  0  0  0  0  0
    7.8866    5.1872   -5.5305 C   0  0  0  0  0  0  0  0  0  0  0  0
    8.6680    4.4783   -4.4362 C   0  0  0  0  0  0  0  0  0  0  0  0
    9.3609    3.3130   -4.6987 C   0  0  0  0  0  0  0  0  0  0  0  0
   10.1474    2.7405   -3.6959 C   0  0  0  0  0  0  0  0  0  0  0  0
   10.2069    3.3945   -2.4717 C   0  0  0  0  0  0  0  0  0  0  0  0
    9.5036    4.5652   -2.3029 C   0  0  0  0  0  0  0  0  0  0  0  0
    8.7328    5.1059   -3.2516 N   0  0  0  0  0  0  0  0  0  0  0  0
    6.2586    2.3988   -7.1719 C   0  0  0  0  0  0  0  0  0  0  0  0
    5.7124    1.1480   -6.9971 C   0  0  0  0  0  0  0  0  0  0  0  0
    5.1549    0.7398   -5.8529 N   0  0  0  0  0  0  0  0  0  0  0  0
    3.3886    1.8896   -3.0401 C   0  0  0  0  0  0  0  0  0  0  0  0
    2.6783    1.4251   -1.9595 C   0  0  0  0  0  0  0  0  0  0  0  0
    2.5413   -0.7450    1.9942 H   0  0  0  0  0  0  0  0  0  0  0  0
    4.9033    0.3484    0.5797 H   0  0  0  0  0  0  0  0  0  0  0  0
    4.5509   -2.5986    1.0154 H   0  0  0  0  0  0  0  0  0  0  0  0
    4.7674   -1.7780   -0.5143 H   0  0  0  0  0  0  0  0  0  0  0  0
    6.8522   -2.8370    0.3389 H   0  0  0  0  0  0  0  0  0  0  0  0
    7.0054   -1.1006    0.1145 H   0  0  0  0  0  0  0  0  0  0  0  0
    6.9577    0.3129    2.0658 H   0  0  0  0  0  0  0  0  0  0  0  0
    6.8354   -0.4298    3.6561 H   0  0  0  0  0  0  0  0  0  0  0  0
    4.7547    0.6588    2.9454 H   0  0  0  0  0  0  0  0  0  0  0  0
    4.5588   -1.0628    3.2014 H   0  0  0  0  0  0  0  0  0  0  0  0
    4.3330   -1.4178   -1.3951 H   0  0  0  0  0  0  0  0  0  0  0  0
    5.8453   -0.2286   -3.0117 H   0  0  0  0  0  0  0  0  0  0  0  0
    5.6995    3.5055   -4.0468 H   0  0  0  0  0  0  0  0  0  0  0  0
    5.6710    5.6118   -7.8459 H   0  0  0  0  0  0  0  0  0  0  0  0
    8.8048    7.0853   -5.6180 H   0  0  0  0  0  0  0  0  0  0  0  0
    9.2961    2.8522   -5.6623 H   0  0  0  0  0  0  0  0  0  0  0  0
   10.6847    1.8308   -3.8647 H   0  0  0  0  0  0  0  0  0  0  0  0
   10.7918    2.9932   -1.6706 H   0  0  0  0  0  0  0  0  0  0  0  0
    9.5778    5.0694   -1.3621 H   0  0  0  0  0  0  0  0  0  0  0  0
    6.6725    2.6824   -8.1169 H   0  0  0  0  0  0  0  0  0  0  0  0
    5.7352    0.4657   -7.8210 H   0  0  0  0  0  0  0  0  0  0  0  0
    3.0947    2.8045   -3.5105 H   0  0  0  0  0  0  0  0  0  0  0  0
    1.7965    1.9419   -1.6429 H   0  0  0  0  0  0  0  0  0  0  0  0
  1  2  2  0  0  0  0
  2  3  1  0  0  0  0
  2 10  1  0  0  0  0
  3  4  1  0  0  0  0
  3 33  1  0  0  0  0
  4  5  1  0  0  0  0
  4  9  1  0  0  0  0
  4 34  1  0  0  0  0
  5  6  1  0  0  0  0
  5 35  1  0  0  0  0
  5 36  1  0  0  0  0
  6  7  1  0  0  0  0
  6 37  1  0  0  0  0
  6 38  1  0  0  0  0
  7  8  1  0  0  0  0
  8  9  1  0  0  0  0
  8 39  1  0  0  0  0
  8 40  1  0  0  0  0
  9 41  1  0  0  0  0
  9 42  1  0  0  0  0
 10 11  1  0  0  0  0
 10 32  2  0  0  0  0
 11 12  2  0  0  0  0
 11 43  1  0  0  0  0
 12 13  1  0  0  0  0
 12 44  1  0  0  0  0
 13 14  1  0  0  0  0
 13 31  2  0  0  0  0
 14 15  1  0  0  0  0
 14 30  2  0  0  0  0
 15 16  2  0  0  0  0
 15 45  1  0  0  0  0
 16 17  1  0  0  0  0
 16 28  1  0  0  0  0
 17 18  1  0  0  0  0
 17 21  2  0  0  0  0
 18 19  2  0  0  0  0
 18 46  1  0  0  0  0
 19 20  1  0  0  0  0
 20 21  1  0  0  0  0
 20 47  1  0  0  0  0
 21 22  1  0  0  0  0
 22 23  1  0  0  0  0
 22 27  2  0  0  0  0
 23 24  2  0  0  0  0
 23 48  1  0  0  0  0
 24 25  1  0  0  0  0
 24 49  1  0  0  0  0
 25 26  2  0  0  0  0
 25 50  1  0  0  0  0
 26 27  1  0  0  0  0
 26 51  1  0  0  0  0
 28 29  2  0  0  0  0
 28 52  1  0  0  0  0
 29 30  1  0  0  0  0
 29 53  1  0  0  0  0
 31 32  1  0  0  0  0
 31 54  1  0  0  0  0
 32 55  1  0  0  0  0
M  END
