REMARK  Name = 
REMARK  7 active torsions:
REMARK  status: ('A' for Active; 'I' for Inactive)
REMARK    1  A    between atoms: C_6  and  C_7
REMARK    2  A    between atoms: C_8  and  C_9
REMARK    3  A    between atoms: C_14  and  N_15
REMARK    4  A    between atoms: N_15  and  C_16
REMARK    5  A    between atoms: C_19  and  O_20
REMARK    6  A    between atoms: O_20  and  C_21
REMARK    7  A    between atoms: C_21  and  C_22
REMARK                            x       y       z     vdW  Elec       q    Type
REMARK                         _______ _______ _______ _____ _____    ______ ____
ROOT
ATOM      1  N   UNL     1      -5.793  -1.445  -2.740  0.00  0.00    +0.000 N 
ATOM      2  H   UNL     1      -5.006  -1.134  -2.171  0.00  0.00    +0.000 HD
ENDROOT
BRANCH   1   3
ATOM      3  C   UNL     1      -6.725  -0.459  -3.307  0.00  0.00    +0.000 A 
ATOM      4  C   UNL     1      -6.322   0.575  -4.145  0.00  0.00    +0.000 A 
ATOM      5  C   UNL     1      -7.319   1.149  -4.964  0.00  0.00    +0.000 A 
ATOM      6  C   UNL     1      -8.595   1.239  -4.411  0.00  0.00    +0.000 A 
ATOM      7  C   UNL     1      -8.914   0.415  -3.436  0.00  0.00    +0.000 A 
ATOM      8 CL   UNL     1     -10.533   0.504  -2.703  0.00  0.00    +0.000 Cl
ATOM      9  C   UNL     1      -7.995  -0.531  -2.970  0.00  0.00    +0.000 A 
BRANCH   6  10
ATOM     10  O   UNL     1      -9.529   2.197  -4.888  0.00  0.00    +0.000 OA
BRANCH  10  11
ATOM     11  C   UNL     1     -10.825   2.274  -4.312  0.00  0.00    +0.000 C 
BRANCH  11  12
ATOM     12  C   UNL     1     -11.539   0.944  -4.493  0.00  0.00    +0.000 A 
ATOM     13  C   UNL     1     -10.821  -0.227  -4.710  0.00  0.00    +0.000 A 
ATOM     14  C   UNL     1     -11.466  -1.436  -4.367  0.00  0.00    +0.000 A 
ATOM     15  C   UNL     1     -12.842  -1.484  -4.582  0.00  0.00    +0.000 A 
ATOM     16  C   UNL     1     -13.509  -0.350  -4.621  0.00  0.00    +0.000 A 
ATOM     17  F   UNL     1     -14.822  -0.366  -4.829  0.00  0.00    +0.000 F 
ATOM     18  C   UNL     1     -12.852   0.873  -4.446  0.00  0.00    +0.000 A 
ENDBRANCH  11  12
ENDBRANCH  10  11
ENDBRANCH   6  10
ENDBRANCH   1   3
BRANCH   1  24
ATOM     19  C   UNL     1      -5.126  -3.822  -2.466  0.00  0.00    +0.000 A 
ATOM     20  C   UNL     1      -5.344  -5.160  -2.728  0.00  0.00    +0.000 A 
ATOM     21  N   UNL     1      -6.367  -5.545  -3.474  0.00  0.00    +0.000 NA
ATOM     22  C   UNL     1      -7.218  -4.673  -3.987  0.00  0.00    +0.000 A 
ATOM     23  N   UNL     1      -7.062  -3.318  -3.765  0.00  0.00    +0.000 NA
ATOM     24  C   UNL     1      -5.996  -2.878  -2.993  0.00  0.00    +0.000 A 
BRANCH  19  26
ATOM     25  C   UNL     1      -2.898  -3.038  -0.919  0.00  0.00    +0.000 C 
ATOM     26  C   UNL     1      -3.927  -3.400  -1.633  0.00  0.00    +0.000 C 
BRANCH  25  32
ATOM     27  N   UNL     1       0.961  -0.060  -0.069  0.00  0.00    +0.000 N 
ATOM     28  C   UNL     1       0.226  -1.291   0.257  0.00  0.00    +0.000 A 
ATOM     29  N   UNL     1       0.614  -2.009   1.289  0.00  0.00    +0.000 NA
ATOM     30  C   UNL     1      -0.104  -3.158   1.602  0.00  0.00    +0.000 A 
ATOM     31  C   UNL     1      -1.441  -3.210   1.148  0.00  0.00    +0.000 A 
ATOM     32  C   UNL     1      -1.698  -2.616  -0.086  0.00  0.00    +0.000 A 
ATOM     33  N   UNL     1      -0.876  -1.681  -0.513  0.00  0.00    +0.000 NA
ATOM     34  H   UNL     1       0.451   0.793  -0.295  0.00  0.00    +0.000 HD
ATOM     35  H   UNL     1       1.981  -0.060  -0.069  0.00  0.00    +0.000 HD
ENDBRANCH  25  32
ENDBRANCH  19  26
ENDBRANCH   1  24
TORSDOF 7
