
 OpenBabel03132512093D

 44 47  0  0  0  0  0  0  0  0999 V2000
    1.0623   -0.0676    0.0393 N   0  0  0  0  0  0  0  0  0  0  0  0
    0.3273    1.0476    0.6534 C   0  0  0  0  0  0  0  0  0  0  0  0
    0.6390    2.3480    0.4634 N   0  0  0  0  0  0  0  0  0  0  0  0
   -0.1188    3.3457    0.9902 C   0  0  0  0  0  0  0  0  0  0  0  0
   -1.2270    3.0859    1.7193 N   0  0  0  0  0  0  0  0  0  0  0  0
   -1.6077    1.7632    1.9537 C   0  0  0  0  0  0  0  0  0  0  0  0
   -2.6133    1.1693    2.6163 O   0  0  0  0  0  0  0  0  0  0  0  0
   -2.4725   -0.1356    2.5021 C   0  0  0  0  0  0  0  0  0  0  0  0
   -1.3983   -0.4251    1.7824 C   0  0  0  0  0  0  0  0  0  0  0  0
   -0.9122   -1.8237    1.4388 C   0  0  0  0  0  0  0  0  0  0  0  0
    0.3459   -2.2831    1.7737 C   0  0  0  0  0  0  0  0  0  0  0  0
    0.7413   -3.4946    1.4154 C   0  0  0  0  0  0  0  0  0  0  0  0
   -0.0481   -4.3079    0.7339 C   0  0  0  0  0  0  0  0  0  0  0  0
    0.4333   -5.6468    0.3645 N   0  0  0  0  0  0  0  0  0  0  0  0
    1.7850   -6.0748    0.7527 C   0  0  0  0  0  0  0  0  0  0  0  0
    2.2012   -7.2324    0.4334 O   0  0  0  0  0  0  0  0  0  0  0  0
    2.6553   -5.1639    1.5101 N   0  0  0  0  0  0  0  0  0  0  0  0
    2.1739   -3.8250    1.8795 C   0  0  0  0  0  0  0  0  0  0  0  0
    2.9163   -2.6771    1.6869 C   0  0  0  0  0  0  0  0  0  0  0  0
    2.4159   -1.4892    1.9882 C   0  0  0  0  0  0  0  0  0  0  0  0
    1.1938   -1.3554    2.4756 C   0  0  0  0  0  0  0  0  0  0  0  0
    0.3949   -2.4611    2.6940 C   0  0  0  0  0  0  0  0  0  0  0  0
   -1.0084   -2.2981    3.2547 C   0  0  0  0  0  0  0  0  0  0  0  0
   -0.9441   -1.7140    4.4478 F   0  0  0  0  0  0  0  0  0  0  0  0
   -1.7304   -1.5442    2.4304 F   0  0  0  0  0  0  0  0  0  0  0  0
   -1.5788   -3.4934    3.3764 F   0  0  0  0  0  0  0  0  0  0  0  0
    0.8899   -3.7221    2.3950 C   0  0  0  0  0  0  0  0  0  0  0  0
   -1.3198   -3.9139    0.3650 C   0  0  0  0  0  0  0  0  0  0  0  0
   -1.7645   -2.6483    0.7187 C   0  0  0  0  0  0  0  0  0  0  0  0
   -0.8153    0.7134    1.4101 C   0  0  0  0  0  0  0  0  0  0  0  0
    0.5523   -0.8414   -0.3867 H   0  0  0  0  0  0  0  0  0  0  0  0
    2.0823   -0.0676    0.0393 H   0  0  0  0  0  0  0  0  0  0  0  0
    0.1692    4.3626    0.8237 H   0  0  0  0  0  0  0  0  0  0  0  0
   -3.1331   -0.8602    2.9305 H   0  0  0  0  0  0  0  0  0  0  0  0
    1.0087   -1.6529    2.3290 H   0  0  0  0  0  0  0  0  0  0  0  0
    1.7234   -3.8238    1.6837 H   0  0  0  0  0  0  0  0  0  0  0  0
   -0.1705   -6.2789   -0.1610 H   0  0  0  0  0  0  0  0  0  0  0  0
    3.5932   -5.4609    1.7795 H   0  0  0  0  0  0  0  0  0  0  0  0
    3.9072   -2.7485    1.2896 H   0  0  0  0  0  0  0  0  0  0  0  0
    3.0148   -0.6160    1.8337 H   0  0  0  0  0  0  0  0  0  0  0  0
    0.8194   -0.3793    2.7035 H   0  0  0  0  0  0  0  0  0  0  0  0
    0.2945   -4.5961    2.5583 H   0  0  0  0  0  0  0  0  0  0  0  0
   -1.9537   -4.5764   -0.1865 H   0  0  0  0  0  0  0  0  0  0  0  0
   -2.7431   -2.3155    0.4423 H   0  0  0  0  0  0  0  0  0  0  0  0
  1  2  1  0  0  0  0
  1 31  1  0  0  0  0
  1 32  1  0  0  0  0
  2  3  1  0  0  0  0
  2 30  2  0  0  0  0
  3  4  2  0  0  0  0
  4  5  1  0  0  0  0
  4 33  1  0  0  0  0
  5  6  2  0  0  0  0
  6  7  1  0  0  0  0
  6 30  1  0  0  0  0
  7  8  1  0  0  0  0
  8  9  2  0  0  0  0
  8 34  1  0  0  0  0
  9 10  1  0  0  0  0
  9 30  1  0  0  0  0
 10 11  1  0  0  0  0
 10 29  2  0  0  0  0
 11 12  2  0  0  0  0
 11 35  1  0  0  0  0
 12 13  1  0  0  0  0
 12 36  1  0  0  0  0
 13 14  1  0  0  0  0
 13 28  2  0  0  0  0
 14 15  1  0  0  0  0
 14 37  1  0  0  0  0
 15 16  2  0  0  0  0
 15 17  1  0  0  0  0
 17 18  1  0  0  0  0
 17 38  1  0  0  0  0
 18 19  1  0  0  0  0
 18 27  2  0  0  0  0
 19 20  2  0  0  0  0
 19 39  1  0  0  0  0
 20 21  1  0  0  0  0
 20 40  1  0  0  0  0
 21 22  2  0  0  0  0
 21 41  1  0  0  0  0
 22 23  1  0  0  0  0
 22 27  1  0  0  0  0
 23 24  1  0  0  0  0
 23 25  1  0  0  0  0
 23 26  1  0  0  0  0
 27 42  1  0  0  0  0
 28 29  1  0  0  0  0
 28 43  1  0  0  0  0
 29 44  1  0  0  0  0
M  END
