REMARK  Name = 
REMARK  5 active torsions:
REMARK  status: ('A' for Active; 'I' for Inactive)
REMARK    1  A    between atoms: N_1  and  C_2
REMARK    2  A    between atoms: C_9  and  C_10
REMARK    3  A    between atoms: C_13  and  N_14
REMARK    4  A    between atoms: N_17  and  C_18
REMARK    5  A    between atoms: C_22  and  C_23
REMARK                            x       y       z     vdW  Elec       q    Type
REMARK                         _______ _______ _______ _____ _____    ______ ____
ROOT
ATOM      1  C   UNL     1      -0.912  -1.824   1.439  0.00  0.00    +0.000 A 
ATOM      2  C   UNL     1       0.346  -2.283   1.774  0.00  0.00    +0.000 A 
ATOM      3  C   UNL     1       0.741  -3.495   1.415  0.00  0.00    +0.000 A 
ATOM      4  C   UNL     1      -0.048  -4.308   0.734  0.00  0.00    +0.000 A 
ATOM      5  C   UNL     1      -1.320  -3.914   0.365  0.00  0.00    +0.000 A 
ATOM      6  C   UNL     1      -1.764  -2.648   0.719  0.00  0.00    +0.000 A 
ENDROOT
BRANCH   1  14
ATOM      7  C   UNL     1       0.327   1.048   0.653  0.00  0.00    +0.000 A 
ATOM      8  N   UNL     1       0.639   2.348   0.463  0.00  0.00    +0.000 NA
ATOM      9  C   UNL     1      -0.119   3.346   0.990  0.00  0.00    +0.000 A 
ATOM     10  N   UNL     1      -1.227   3.086   1.719  0.00  0.00    +0.000 NA
ATOM     11  C   UNL     1      -1.608   1.763   1.954  0.00  0.00    +0.000 A 
ATOM     12  O   UNL     1      -2.613   1.169   2.616  0.00  0.00    +0.000 OA
ATOM     13  C   UNL     1      -2.473  -0.136   2.502  0.00  0.00    +0.000 A 
ATOM     14  C   UNL     1      -1.398  -0.425   1.782  0.00  0.00    +0.000 A 
ATOM     15  C   UNL     1      -0.815   0.713   1.410  0.00  0.00    +0.000 A 
BRANCH   7  16
ATOM     16  N   UNL     1       1.062  -0.068   0.039  0.00  0.00    +0.000 N 
ATOM     17  H   UNL     1       0.552  -0.841  -0.387  0.00  0.00    +0.000 HD
ATOM     18  H   UNL     1       2.082  -0.068   0.039  0.00  0.00    +0.000 HD
ENDBRANCH   7  16
ENDBRANCH   1  14
BRANCH   4  19
ATOM     19  N   UNL     1       0.433  -5.647   0.364  0.00  0.00    +0.000 N 
ATOM     20  C   UNL     1       1.785  -6.075   0.753  0.00  0.00    +0.000 C 
ATOM     21  O   UNL     1       2.201  -7.232   0.433  0.00  0.00    +0.000 OA
ATOM     22  N   UNL     1       2.655  -5.164   1.510  0.00  0.00    +0.000 N 
ATOM     23  H   UNL     1      -0.171  -6.279  -0.161  0.00  0.00    +0.000 HD
ATOM     24  H   UNL     1       3.593  -5.461   1.780  0.00  0.00    +0.000 HD
BRANCH  22  25
ATOM     25  C   UNL     1       2.174  -3.825   1.879  0.00  0.00    +0.000 A 
ATOM     26  C   UNL     1       2.916  -2.677   1.687  0.00  0.00    +0.000 A 
ATOM     27  C   UNL     1       2.416  -1.489   1.988  0.00  0.00    +0.000 A 
ATOM     28  C   UNL     1       1.194  -1.355   2.476  0.00  0.00    +0.000 A 
ATOM     29  C   UNL     1       0.395  -2.461   2.694  0.00  0.00    +0.000 A 
ATOM     30  C   UNL     1       0.890  -3.722   2.395  0.00  0.00    +0.000 A 
BRANCH  29  31
ATOM     31  C   UNL     1      -1.008  -2.298   3.255  0.00  0.00    +0.000 C 
ATOM     32  F   UNL     1      -0.944  -1.714   4.448  0.00  0.00    +0.000 F 
ATOM     33  F   UNL     1      -1.730  -1.544   2.430  0.00  0.00    +0.000 F 
ATOM     34  F   UNL     1      -1.579  -3.493   3.376  0.00  0.00    +0.000 F 
ENDBRANCH  29  31
ENDBRANCH  22  25
ENDBRANCH   4  19
TORSDOF 5
