
 OpenBabel03132512093D

 44 47  0  0  0  0  0  0  0  0999 V2000
    1.0677   -0.0493   -0.0547 C   0  0  0  0  0  0  0  0  0  0  0  0
    0.5943   -1.3528   -0.3601 O   0  0  0  0  0  0  0  0  0  0  0  0
    0.9374   -1.9611   -1.5965 C   0  0  0  0  0  0  0  0  0  0  0  0
   -0.1102   -2.4719   -2.3450 C   0  0  0  0  0  0  0  0  0  0  0  0
    0.3020   -3.1971   -3.4879 C   0  0  0  0  0  0  0  0  0  0  0  0
    1.5035   -3.1201   -4.0306 C   0  0  0  0  0  0  0  0  0  0  0  0
    2.4799   -2.5432   -3.2670 C   0  0  0  0  0  0  0  0  0  0  0  0
    3.9231   -2.5811   -3.7425 C   0  0  0  0  0  0  0  0  0  0  0  0
    4.3404   -3.9313   -3.8813 O   0  0  0  0  0  0  0  0  0  0  0  0
    4.3270   -4.7978   -2.7564 C   0  0  0  0  0  0  0  0  0  0  0  0
    3.2603   -4.8739   -1.8544 C   0  0  0  0  0  0  0  0  0  0  0  0
    3.4874   -5.7725   -0.8379 C   0  0  0  0  0  0  0  0  0  0  0  0
    2.5337   -6.0575    0.2438 N   0  0  0  0  0  0  0  0  0  0  0  0
    1.3074   -5.3982    0.2825 C   0  0  0  0  0  0  0  0  0  0  0  0
    0.9848   -4.4690   -0.7036 N   0  0  0  0  0  0  0  0  0  0  0  0
    1.9385   -4.1841   -1.7853 C   0  0  0  0  0  0  0  0  0  0  0  0
    2.2030   -2.8708   -2.1372 C   0  0  0  0  0  0  0  0  0  0  0  0
    2.9211   -2.7355   -3.3488 C   0  0  0  0  0  0  0  0  0  0  0  0
    3.6031   -3.7069   -3.9278 C   0  0  0  0  0  0  0  0  0  0  0  0
    3.3460   -4.9759   -3.4884 C   0  0  0  0  0  0  0  0  0  0  0  0
    2.5492   -5.1958   -2.3908 C   0  0  0  0  0  0  0  0  0  0  0  0
    5.0309   -6.5218   -0.9929 S   0  0  0  0  0  0  0  0  0  0  0  0
    5.3505   -5.6328   -2.4307 C   0  0  0  0  0  0  0  0  0  0  0  0
    6.6283   -5.7649   -3.2431 C   0  0  0  0  0  0  0  0  0  0  0  0
    7.6808   -6.6959   -2.8113 N   0  0  0  0  0  0  0  0  0  0  0  0
    6.7868   -5.0705   -4.2956 O   0  0  0  0  0  0  0  0  0  0  0  0
    2.1753   -1.9297   -2.0759 C   0  0  0  0  0  0  0  0  0  0  0  0
    0.7110    0.2425    0.9110 H   0  0  0  0  0  0  0  0  0  0  0  0
    0.7110    0.6411   -0.7902 H   0  0  0  0  0  0  0  0  0  0  0  0
    2.1377   -0.0493   -0.0547 H   0  0  0  0  0  0  0  0  0  0  0  0
   -1.1379   -2.3308   -2.0828 H   0  0  0  0  0  0  0  0  0  0  0  0
   -0.4093   -3.8534   -3.9442 H   0  0  0  0  0  0  0  0  0  0  0  0
    1.7021   -3.4894   -5.0151 H   0  0  0  0  0  0  0  0  0  0  0  0
    4.0005   -2.0850   -4.6873 H   0  0  0  0  0  0  0  0  0  0  0  0
    4.5472   -2.0866   -3.0277 H   0  0  0  0  0  0  0  0  0  0  0  0
    2.3646   -4.2956   -1.9453 H   0  0  0  0  0  0  0  0  0  0  0  0
    0.6131   -5.6056    1.0699 H   0  0  0  0  0  0  0  0  0  0  0  0
    1.8924   -2.0345   -1.5464 H   0  0  0  0  0  0  0  0  0  0  0  0
    2.9109   -1.7795   -3.8295 H   0  0  0  0  0  0  0  0  0  0  0  0
    4.3183   -3.5115   -4.6992 H   0  0  0  0  0  0  0  0  0  0  0  0
    3.7715   -5.8097   -4.0067 H   0  0  0  0  0  0  0  0  0  0  0  0
    8.5384   -6.7845   -3.3564 H   0  0  0  0  0  0  0  0  0  0  0  0
    7.5536   -7.2532   -1.9665 H   0  0  0  0  0  0  0  0  0  0  0  0
    2.9426   -1.4220   -1.5296 H   0  0  0  0  0  0  0  0  0  0  0  0
  1  2  1  0  0  0  0
  1 28  1  0  0  0  0
  1 29  1  0  0  0  0
  1 30  1  0  0  0  0
  2  3  1  0  0  0  0
  3  4  1  0  0  0  0
  3 27  2  0  0  0  0
  4  5  2  0  0  0  0
  4 31  1  0  0  0  0
  5  6  1  0  0  0  0
  5 32  1  0  0  0  0
  6  7  2  0  0  0  0
  6 33  1  0  0  0  0
  7  8  1  0  0  0  0
  7 27  1  0  0  0  0
  8  9  1  0  0  0  0
  8 34  1  0  0  0  0
  8 35  1  0  0  0  0
  9 10  1  0  0  0  0
 10 11  1  0  0  0  0
 10 23  2  0  0  0  0
 11 12  2  0  0  0  0
 11 36  1  0  0  0  0
 12 13  1  0  0  0  0
 12 22  1  0  0  0  0
 13 14  1  0  0  0  0
 13 21  1  0  0  0  0
 14 15  2  0  0  0  0
 14 37  1  0  0  0  0
 15 16  1  0  0  0  0
 16 17  1  0  0  0  0
 16 21  2  0  0  0  0
 17 18  2  0  0  0  0
 17 38  1  0  0  0  0
 18 19  1  0  0  0  0
 18 39  1  0  0  0  0
 19 20  2  0  0  0  0
 19 40  1  0  0  0  0
 20 21  1  0  0  0  0
 20 41  1  0  0  0  0
 22 23  1  0  0  0  0
 23 24  1  0  0  0  0
 24 25  1  0  0  0  0
 24 26  2  0  0  0  0
 25 42  1  0  0  0  0
 25 43  1  0  0  0  0
 27 44  1  0  0  0  0
M  END
