REMARK  Name = 
REMARK  11 active torsions:
REMARK  status: ('A' for Active; 'I' for Inactive)
REMARK    1  A    between atoms: C_1  and  C_2
REMARK    2  A    between atoms: C_2  and  O_3
REMARK    3  A    between atoms: O_3  and  C_4
REMARK    4  A    between atoms: C_8  and  C_10
REMARK    5  A    between atoms: C_10  and  C_11
REMARK    6  A    between atoms: C_13  and  O_14
REMARK    7  A    between atoms: O_14  and  C_15
REMARK    8  A    between atoms: C_18  and  O_19
REMARK    9  A    between atoms: O_19  and  C_20
REMARK   10  A    between atoms: C_22  and  N_23
REMARK   11  A    between atoms: C_24  and  C_25
REMARK                            x       y       z     vdW  Elec       q    Type
REMARK                         _______ _______ _______ _____ _____    ______ ____
ROOT
ATOM      1  C   UNL     1       2.397   2.693   0.049  0.00  0.00    +0.000 A 
ATOM      2  N   UNL     1       2.929   3.935   0.331  0.00  0.00    +0.000 NA
ATOM      3  C   UNL     1       4.229   4.155   0.217  0.00  0.00    +0.000 A 
ATOM      4  N   UNL     1       4.759   5.493   0.520  0.00  0.00    +0.000 N 
ATOM      5  C   UNL     1       3.848   6.566   0.943  0.00  0.00    +0.000 C 
ATOM      6  O   UNL     1       4.306   7.723   1.204  0.00  0.00    +0.000 OA
ATOM      7  C   UNL     1       5.064   3.202  -0.162  0.00  0.00    +0.000 A 
ATOM      8  C   UNL     1       4.600   1.935  -0.460  0.00  0.00    +0.000 A 
ATOM      9  C   UNL     1       3.242   1.671  -0.357  0.00  0.00    +0.000 A 
ATOM     10  H   UNL     1       5.759   5.676   0.436  0.00  0.00    +0.000 HD
ENDROOT
BRANCH   8  11
ATOM     11  N   UNL     1       5.534   0.881  -0.881  0.00  0.00    +0.000 N 
ATOM     12  H   UNL     1       6.531   1.082  -0.954  0.00  0.00    +0.000 HD
ATOM     13  H   UNL     1       5.185  -0.052  -1.100  0.00  0.00    +0.000 HD
ENDBRANCH   8  11
BRANCH   9  14
ATOM     14  C   UNL     1       2.693   0.291  -0.683  0.00  0.00    +0.000 C 
ATOM     15  N   UNL     1       2.237  -0.853  -0.953  0.00  0.00    +0.000 NA
ENDBRANCH   9  14
BRANCH   1  16
ATOM     16  O   UNL     1       1.001   2.465   0.173  0.00  0.00    +0.000 OA
BRANCH  16  18
ATOM     17  C   UNL     1       1.034   0.066   0.067  0.00  0.00    +0.000 C 
ATOM     18  C   UNL     1       0.527   1.289   0.814  0.00  0.00    +0.000 C 
ENDBRANCH  16  18
ENDBRANCH   1  16
BRANCH   5  19
ATOM     19  C   UNL     1       2.358   6.293   1.067  0.00  0.00    +0.000 C 
BRANCH  19  20
ATOM     20  C   UNL     1       1.808   5.854  -0.281  0.00  0.00    +0.000 A 
ATOM     21  C   UNL     1       1.710   4.471  -0.595  0.00  0.00    +0.000 A 
ATOM     22  C   UNL     1       1.587   4.076  -1.938  0.00  0.00    +0.000 A 
ATOM     23  C   UNL     1       1.291   4.955  -2.850  0.00  0.00    +0.000 A 
ATOM     24  C   UNL     1       1.085   6.295  -2.494  0.00  0.00    +0.000 A 
ATOM     25  C   UNL     1       1.499   6.751  -1.219  0.00  0.00    +0.000 A 
BRANCH  22  26
ATOM     26  O   UNL     1       1.785   2.717  -2.299  0.00  0.00    +0.000 OA
ATOM     27  C   UNL     1       2.107   1.757  -1.304  0.00  0.00    +0.000 C 
ENDBRANCH  22  26
BRANCH  25  28
ATOM     28  O   UNL     1       1.584   8.142  -0.943  0.00  0.00    +0.000 OA
ATOM     29  C   UNL     1       2.000   8.587   0.339  0.00  0.00    +0.000 C 
ENDBRANCH  25  28
ENDBRANCH  19  20
ENDBRANCH   5  19
TORSDOF 8
