REMARK  Name = 
REMARK  11 active torsions:
REMARK  status: ('A' for Active; 'I' for Inactive)
REMARK    1  A    between atoms: C_1  and  C_2
REMARK    2  A    between atoms: C_2  and  O_3
REMARK    3  A    between atoms: O_3  and  C_4
REMARK    4  A    between atoms: C_8  and  C_10
REMARK    5  A    between atoms: C_10  and  C_11
REMARK    6  A    between atoms: C_13  and  O_14
REMARK    7  A    between atoms: O_14  and  C_15
REMARK    8  A    between atoms: C_18  and  O_19
REMARK    9  A    between atoms: O_19  and  C_20
REMARK   10  A    between atoms: C_22  and  N_23
REMARK   11  A    between atoms: C_24  and  C_25
REMARK                            x       y       z     vdW  Elec       q    Type
REMARK                         _______ _______ _______ _____ _____    ______ ____
ROOT
ATOM      1  C   UNL     1       2.444  -1.227   2.280  0.00  0.00    +0.000 A 
ATOM      2  N   UNL     1       2.977  -2.054   3.248  0.00  0.00    +0.000 NA
ATOM      3  C   UNL     1       4.277  -2.056   3.496  0.00  0.00    +0.000 A 
ATOM      4  N   UNL     1       4.808  -2.945   4.539  0.00  0.00    +0.000 N 
ATOM      5  C   UNL     1       3.897  -3.819   5.293  0.00  0.00    +0.000 C 
ATOM      6  O   UNL     1       4.356  -4.587   6.196  0.00  0.00    +0.000 OA
ATOM      7  C   UNL     1       5.111  -1.277   2.827  0.00  0.00    +0.000 A 
ATOM      8  C   UNL     1       4.647  -0.424   1.845  0.00  0.00    +0.000 A 
ATOM      9  C   UNL     1       3.289  -0.392   1.563  0.00  0.00    +0.000 A 
ATOM     10  H   UNL     1       5.808  -2.956   4.740  0.00  0.00    +0.000 HD
ENDROOT
BRANCH   8  11
ATOM     11  N   UNL     1       5.580   0.439   1.106  0.00  0.00    +0.000 N 
ATOM     12  H   UNL     1       6.578   0.410   1.318  0.00  0.00    +0.000 HD
ATOM     13  H   UNL     1       5.231   1.066   0.382  0.00  0.00    +0.000 HD
ENDBRANCH   8  11
BRANCH   9  14
ATOM     14  C   UNL     1       2.739   0.537   0.494  0.00  0.00    +0.000 C 
ATOM     15  N   UNL     1       2.282   1.308  -0.394  0.00  0.00    +0.000 NA
ENDBRANCH   9  14
BRANCH   1  16
ATOM     16  O   UNL     1       1.048  -1.232   2.021  0.00  0.00    +0.000 OA
BRANCH  16  18
ATOM     17  C   UNL     1       1.081  -0.022  -0.054  0.00  0.00    +0.000 C 
ATOM     18  C   UNL     1       0.575  -1.252   0.682  0.00  0.00    +0.000 C 
ENDBRANCH  16  18
ENDBRANCH   1  16
BRANCH   5  19
ATOM     19  C   UNL     1       2.407  -3.802   4.994  0.00  0.00    +0.000 C 
BRANCH  19  20
ATOM     20  C   UNL     1       1.858  -2.405   5.233  0.00  0.00    +0.000 A 
ATOM     21  C   UNL     1       0.488  -2.193   5.555  0.00  0.00    +0.000 A 
ATOM     22  C   UNL     1      -0.044  -0.895   5.479  0.00  0.00    +0.000 A 
ATOM     23  C   UNL     1       0.750   0.130   5.388  0.00  0.00    +0.000 A 
ATOM     24  C   UNL     1       2.139  -0.057   5.375  0.00  0.00    +0.000 A 
ATOM     25  C   UNL     1       2.669  -1.350   5.146  0.00  0.00    +0.000 A 
BRANCH  22  26
ATOM     26  O   UNL     1      -1.451  -0.703   5.502  0.00  0.00    +0.000 OA
ATOM     27  C   UNL     1      -2.319  -1.822   5.602  0.00  0.00    +0.000 C 
ENDBRANCH  22  26
BRANCH  25  28
ATOM     28  O   UNL     1       4.043  -1.521   4.828  0.00  0.00    +0.000 OA
ATOM     29  C   UNL     1       4.562  -2.822   4.601  0.00  0.00    +0.000 C 
ENDBRANCH  25  28
ENDBRANCH  19  20
ENDBRANCH   5  19
TORSDOF 8
