
 OpenBabel03132514253D

 40 44  0  0  0  0  0  0  0  0999 V2000
   -2.0840   -0.7070    0.0020 C   0  0  0  0  0  0  0  0  0  0  0  0
   -2.0960    0.6520   -0.0030 C   0  0  0  0  0  0  0  0  0  0  0  0
   -0.9520    1.3720    0.0020 N   0  0  0  0  0  0  0  0  0  0  0  0
    0.2800    0.7150    0.0010 N   0  0  0  0  0  0  0  0  0  0  0  0
    1.5640    1.1080   -0.0000 N   0  0  0  0  0  0  0  0  0  0  0  0
    2.3270    0.0340   -0.0000 C   0  0  0  0  0  0  0  0  0  0  0  0
    1.5840   -1.0630   -0.0010 C   0  0  0  0  0  0  0  0  0  0  0  0
    2.1093   -2.4893   -0.0030 C   0  0  0  0  0  0  0  0  0  0  0  0
    1.7768   -3.3457   -1.0470 C   0  0  0  0  0  0  0  0  0  0  0  0
    2.6490   -4.4338   -1.2732 C   0  0  0  0  0  0  0  0  0  0  0  0
    3.2299   -5.0052   -0.1424 N   0  0  0  0  0  0  0  0  0  0  0  0
    3.3331   -4.2715    0.9455 C   0  0  0  0  0  0  0  0  0  0  0  0
    3.9375   -4.8474    2.1554 N   0  0  0  0  0  0  0  0  0  0  0  0
    4.4225   -6.2350    2.1457 C   0  0  0  0  0  0  0  0  0  0  0  0
    3.8838   -7.1594    3.0341 C   0  0  0  0  0  0  0  0  0  0  0  0
    3.9920   -8.5206    2.6716 C   0  0  0  0  0  0  0  0  0  0  0  0
    5.1545   -8.8895    1.9971 C   0  0  0  0  0  0  0  0  0  0  0  0
    5.8178   -7.9610    1.3411 C   0  0  0  0  0  0  0  0  0  0  0  0
    5.3638   -6.6376    1.3193 C   0  0  0  0  0  0  0  0  0  0  0  0
    7.0079   -8.3062    0.6476 O   0  0  0  0  0  0  0  0  0  0  0  0
    7.7299   -7.3109   -0.0626 C   0  0  0  0  0  0  0  0  0  0  0  0
    6.8396   -6.7095   -1.1379 C   0  0  0  0  0  0  0  0  0  0  0  0
    5.6119  -10.2337    2.0169 O   0  0  0  0  0  0  0  0  0  0  0  0
    2.8741   -2.9498    0.9636 N   0  0  0  0  0  0  0  0  0  0  0  0
    0.3000   -0.7080   -0.0000 C   0  0  0  0  0  0  0  0  0  0  0  0
   -0.9270   -1.4040   -0.0000 C   0  0  0  0  0  0  0  0  0  0  0  0
   -3.0132   -1.2375    0.0077 H   0  0  0  0  0  0  0  0  0  0  0  0
   -3.0349    1.1651   -0.0111 H   0  0  0  0  0  0  0  0  0  0  0  0
    3.3969    0.0460    0.0007 H   0  0  0  0  0  0  0  0  0  0  0  0
    0.9054   -3.1886   -1.6478 H   0  0  0  0  0  0  0  0  0  0  0  0
    2.8523   -4.7991   -2.2582 H   0  0  0  0  0  0  0  0  0  0  0  0
    4.0204   -4.2841    3.0017 H   0  0  0  0  0  0  0  0  0  0  0  0
    3.4117   -6.8555    3.9450 H   0  0  0  0  0  0  0  0  0  0  0  0
    3.2240   -9.2291    2.9023 H   0  0  0  0  0  0  0  0  0  0  0  0
    5.7872   -5.9449    0.6223 H   0  0  0  0  0  0  0  0  0  0  0  0
    8.0392   -6.5428    0.6151 H   0  0  0  0  0  0  0  0  0  0  0  0
    8.5914   -7.7524   -0.5186 H   0  0  0  0  0  0  0  0  0  0  0  0
    7.3837   -5.9596   -1.6731 H   0  0  0  0  0  0  0  0  0  0  0  0
    6.5303   -7.4776   -1.8156 H   0  0  0  0  0  0  0  0  0  0  0  0
   -0.9410   -2.4739   -0.0016 H   0  0  0  0  0  0  0  0  0  0  0  0
  1  2  1  0  0  0  0
  1 26  2  0  0  0  0
  1 27  1  0  0  0  0
  2  3  2  0  0  0  0
  2 28  1  0  0  0  0
  3  4  1  0  0  0  0
  4  5  1  0  0  0  0
  4 25  1  0  0  0  0
  5  6  2  0  0  0  0
  6  7  1  0  0  0  0
  6 29  1  0  0  0  0
  7  8  1  0  0  0  0
  7 25  2  0  0  0  0
  8  9  1  0  0  0  0
  8 24  2  0  0  0  0
  9 10  2  0  0  0  0
  9 30  1  0  0  0  0
 10 11  1  0  0  0  0
 10 31  1  0  0  0  0
 11 12  2  0  0  0  0
 12 13  1  0  0  0  0
 12 24  1  0  0  0  0
 13 14  1  0  0  0  0
 13 32  1  0  0  0  0
 14 15  1  0  0  0  0
 14 19  2  0  0  0  0
 15 16  2  0  0  0  0
 15 33  1  0  0  0  0
 16 17  1  0  0  0  0
 16 34  1  0  0  0  0
 17 18  2  0  0  0  0
 17 23  1  0  0  0  0
 18 19  1  0  0  0  0
 18 20  1  0  0  0  0
 19 35  1  0  0  0  0
 20 21  1  0  0  0  0
 21 22  1  0  0  0  0
 21 36  1  0  0  0  0
 21 37  1  0  0  0  0
 22 23  1  0  0  0  0
 22 38  1  0  0  0  0
 22 39  1  0  0  0  0
 25 26  1  0  0  0  0
 26 40  1  0  0  0  0
M  END
