REMARK  Name = 
REMARK  7 active torsions:
REMARK  status: ('A' for Active; 'I' for Inactive)
REMARK    1  A    between atoms: C_1  and  O_2
REMARK    2  A    between atoms: O_2  and  C_3
REMARK    3  A    between atoms: C_7  and  C_8
REMARK    4  A    between atoms: C_8  and  O_9
REMARK    5  A    between atoms: O_9  and  C_10
REMARK    6  A    between atoms: C_12  and  N_13
REMARK    7  A    between atoms: C_23  and  C_24
REMARK                            x       y       z     vdW  Elec       q    Type
REMARK                         _______ _______ _______ _____ _____    ______ ____
ROOT
ATOM      1  C   UNL     1       4.327  -4.798  -2.756  0.00  0.00    +0.000 A 
ATOM      2  C   UNL     1       3.260  -4.874  -1.854  0.00  0.00    +0.000 A 
ATOM      3  C   UNL     1       3.487  -5.772  -0.838  0.00  0.00    +0.000 A 
ATOM      4  S   UNL     1       5.031  -6.522  -0.993  0.00  0.00    +0.000 S 
ATOM      5  C   UNL     1       5.351  -5.633  -2.431  0.00  0.00    +0.000 A 
ENDROOT
BRANCH   3   6
ATOM      6  N   UNL     1       2.534  -6.058   0.244  0.00  0.00    +0.000 N 
ATOM      7  C   UNL     1       1.307  -5.398   0.282  0.00  0.00    +0.000 A 
ATOM      8  N   UNL     1       0.985  -4.469  -0.704  0.00  0.00    +0.000 NA
ATOM      9  C   UNL     1       1.938  -4.184  -1.785  0.00  0.00    +0.000 A 
ATOM     10  C   UNL     1       2.203  -2.871  -2.137  0.00  0.00    +0.000 A 
ATOM     11  C   UNL     1       2.921  -2.736  -3.349  0.00  0.00    +0.000 A 
ATOM     12  C   UNL     1       3.603  -3.707  -3.928  0.00  0.00    +0.000 A 
ATOM     13  C   UNL     1       3.346  -4.976  -3.488  0.00  0.00    +0.000 A 
ATOM     14  C   UNL     1       2.549  -5.196  -2.391  0.00  0.00    +0.000 A 
ENDBRANCH   3   6
BRANCH   5  15
ATOM     15  C   UNL     1       6.628  -5.765  -3.243  0.00  0.00    +0.000 C 
ATOM     16  N   UNL     1       7.681  -6.696  -2.811  0.00  0.00    +0.000 N 
ATOM     17  O   UNL     1       6.787  -5.071  -4.296  0.00  0.00    +0.000 OA
ATOM     18  H   UNL     1       8.538  -6.785  -3.356  0.00  0.00    +0.000 HD
ATOM     19  H   UNL     1       7.554  -7.253  -1.966  0.00  0.00    +0.000 HD
ENDBRANCH   5  15
BRANCH   1  20
ATOM     20  O   UNL     1       4.340  -3.931  -3.881  0.00  0.00    +0.000 OA
BRANCH  20  21
ATOM     21  C   UNL     1       3.923  -2.581  -3.743  0.00  0.00    +0.000 C 
BRANCH  21  26
ATOM     22  C   UNL     1       0.937  -1.961  -1.597  0.00  0.00    +0.000 A 
ATOM     23  C   UNL     1      -0.110  -2.472  -2.345  0.00  0.00    +0.000 A 
ATOM     24  C   UNL     1       0.302  -3.197  -3.488  0.00  0.00    +0.000 A 
ATOM     25  C   UNL     1       1.504  -3.120  -4.031  0.00  0.00    +0.000 A 
ATOM     26  C   UNL     1       2.480  -2.543  -3.267  0.00  0.00    +0.000 A 
ATOM     27  C   UNL     1       2.175  -1.930  -2.076  0.00  0.00    +0.000 A 
BRANCH  22  29
ATOM     28  C   UNL     1       1.068  -0.049  -0.055  0.00  0.00    +0.000 C 
ATOM     29  O   UNL     1       0.594  -1.353  -0.360  0.00  0.00    +0.000 OA
ENDBRANCH  22  29
ENDBRANCH  21  26
ENDBRANCH  20  21
ENDBRANCH   1  20
TORSDOF 6
