
 OpenBabel03132512093D

 46 47  0  0  0  0  0  0  0  0999 V2000
    1.0812   -0.0225   -0.0538 C   0  0  0  0  0  0  0  0  0  0  0  0
    0.5746   -1.2523    0.6820 C   0  0  0  0  0  0  0  0  0  0  0  0
    1.0479   -1.2315    2.0206 O   0  0  0  0  0  0  0  0  0  0  0  0
    2.4440   -1.2274    2.2801 C   0  0  0  0  0  0  0  0  0  0  0  0
    2.9770   -2.0544    3.2485 N   0  0  0  0  0  0  0  0  0  0  0  0
    4.2774   -2.0559    3.4960 C   0  0  0  0  0  0  0  0  0  0  0  0
    4.8078   -2.9452    4.5394 N   0  0  0  0  0  0  0  0  0  0  0  0
    3.8971   -3.8186    5.2935 C   0  0  0  0  0  0  0  0  0  0  0  0
    4.3557   -4.5874    6.1956 O   0  0  0  0  0  0  0  0  0  0  0  0
    2.4069   -3.8021    4.9943 C   0  0  0  0  0  0  0  0  0  0  0  0
    1.8576   -2.4051    5.2331 C   0  0  0  0  0  0  0  0  0  0  0  0
    0.4880   -2.1929    5.5546 C   0  0  0  0  0  0  0  0  0  0  0  0
   -0.0445   -0.8955    5.4789 C   0  0  0  0  0  0  0  0  0  0  0  0
   -1.4512   -0.7031    5.5022 O   0  0  0  0  0  0  0  0  0  0  0  0
   -2.3193   -1.8224    5.6020 C   0  0  0  0  0  0  0  0  0  0  0  0
    0.7504    0.1298    5.3875 C   0  0  0  0  0  0  0  0  0  0  0  0
    2.1391   -0.0569    5.3751 C   0  0  0  0  0  0  0  0  0  0  0  0
    2.6692   -1.3499    5.1459 C   0  0  0  0  0  0  0  0  0  0  0  0
    4.0427   -1.5206    4.8284 O   0  0  0  0  0  0  0  0  0  0  0  0
    4.5624   -2.8223    4.6007 C   0  0  0  0  0  0  0  0  0  0  0  0
    5.1110   -1.2768    2.8273 C   0  0  0  0  0  0  0  0  0  0  0  0
    4.6469   -0.4240    1.8445 C   0  0  0  0  0  0  0  0  0  0  0  0
    5.5803    0.4388    1.1061 N   0  0  0  0  0  0  0  0  0  0  0  0
    3.2888   -0.3923    1.5633 C   0  0  0  0  0  0  0  0  0  0  0  0
    2.7385    0.5369    0.4936 C   0  0  0  0  0  0  0  0  0  0  0  0
    2.2819    1.3077   -0.3938 N   0  0  0  0  0  0  0  0  0  0  0  0
    0.7246    0.8589    0.4369 H   0  0  0  0  0  0  0  0  0  0  0  0
    0.7246   -0.0383   -1.0625 H   0  0  0  0  0  0  0  0  0  0  0  0
    2.1512   -0.0225   -0.0538 H   0  0  0  0  0  0  0  0  0  0  0  0
   -0.4954   -1.2523    0.6820 H   0  0  0  0  0  0  0  0  0  0  0  0
    0.9312   -2.1337    0.1912 H   0  0  0  0  0  0  0  0  0  0  0  0
    5.8078   -2.9562    4.7402 H   0  0  0  0  0  0  0  0  0  0  0  0
    2.2450   -4.0795    3.9737 H   0  0  0  0  0  0  0  0  0  0  0  0
    1.9066   -4.4967    5.6364 H   0  0  0  0  0  0  0  0  0  0  0  0
   -0.1305   -3.0140    5.8514 H   0  0  0  0  0  0  0  0  0  0  0  0
   -2.1611   -2.4722    4.7668 H   0  0  0  0  0  0  0  0  0  0  0  0
   -2.1157   -2.3519    6.5093 H   0  0  0  0  0  0  0  0  0  0  0  0
   -3.3353   -1.4867    5.6053 H   0  0  0  0  0  0  0  0  0  0  0  0
    0.3435    1.1172    5.3217 H   0  0  0  0  0  0  0  0  0  0  0  0
    2.7951    0.7726    5.5378 H   0  0  0  0  0  0  0  0  0  0  0  0
    4.4235   -3.4201    5.4772 H   0  0  0  0  0  0  0  0  0  0  0  0
    4.0488   -3.2724    3.7770 H   0  0  0  0  0  0  0  0  0  0  0  0
    5.6065   -2.7554    4.3764 H   0  0  0  0  0  0  0  0  0  0  0  0
    6.1571   -1.3073    3.0500 H   0  0  0  0  0  0  0  0  0  0  0  0
    6.5776    0.4103    1.3181 H   0  0  0  0  0  0  0  0  0  0  0  0
    5.2307    1.0661    0.3817 H   0  0  0  0  0  0  0  0  0  0  0  0
  1  2  1  0  0  0  0
  1 27  1  0  0  0  0
  1 28  1  0  0  0  0
  1 29  1  0  0  0  0
  2  3  1  0  0  0  0
  2 30  1  0  0  0  0
  2 31  1  0  0  0  0
  3  4  1  0  0  0  0
  4  5  1  0  0  0  0
  4 24  2  0  0  0  0
  5  6  2  0  0  0  0
  6  7  1  0  0  0  0
  6 21  1  0  0  0  0
  7  8  1  0  0  0  0
  7 32  1  0  0  0  0
  8  9  2  0  0  0  0
  8 10  1  0  0  0  0
 10 11  1  0  0  0  0
 10 33  1  0  0  0  0
 10 34  1  0  0  0  0
 11 12  1  0  0  0  0
 11 18  2  0  0  0  0
 12 13  2  0  0  0  0
 12 35  1  0  0  0  0
 13 14  1  0  0  0  0
 13 16  1  0  0  0  0
 14 15  1  0  0  0  0
 15 36  1  0  0  0  0
 15 37  1  0  0  0  0
 15 38  1  0  0  0  0
 16 17  2  0  0  0  0
 16 39  1  0  0  0  0
 17 18  1  0  0  0  0
 17 40  1  0  0  0  0
 18 19  1  0  0  0  0
 19 20  1  0  0  0  0
 20 41  1  0  0  0  0
 20 42  1  0  0  0  0
 20 43  1  0  0  0  0
 21 22  2  0  0  0  0
 21 44  1  0  0  0  0
 22 23  1  0  0  0  0
 22 24  1  0  0  0  0
 23 45  1  0  0  0  0
 23 46  1  0  0  0  0
 24 25  1  0  0  0  0
 25 26  3  0  0  0  0
M  END
