REMARK  Name = 
REMARK  4 active torsions:
REMARK  status: ('A' for Active; 'I' for Inactive)
REMARK    1  A    between atoms: C_2  and  C_5
REMARK    2  A    between atoms: C_9  and  C_10
REMARK    3  A    between atoms: C_18  and  C_19
REMARK    4  A    between atoms: N_24  and  C_25
REMARK                            x       y       z     vdW  Elec       q    Type
REMARK                         _______ _______ _______ _____ _____    ______ ____
ROOT
ATOM      1  C   UNL     1       2.365   4.349  -2.170  0.00  0.00    +0.000 A 
ATOM      2  N   UNL     1       1.645   4.973  -3.091  0.00  0.00    +0.000 NA
ATOM      3  N   UNL     1       1.484   6.242  -2.719  0.00  0.00    +0.000 N 
ATOM      4  N   UNL     1       0.831   7.367  -3.266  0.00  0.00    +0.000 NA
ATOM      5  C   UNL     1       0.866   8.542  -2.600  0.00  0.00    +0.000 A 
ATOM      6  C   UNL     1       1.522   8.670  -1.417  0.00  0.00    +0.000 A 
ATOM      7  C   UNL     1       2.160   7.626  -0.842  0.00  0.00    +0.000 A 
ATOM      8  C   UNL     1       2.163   6.382  -1.476  0.00  0.00    +0.000 A 
ATOM      9  C   UNL     1       2.685   5.177  -1.196  0.00  0.00    +0.000 A 
ENDROOT
BRANCH   9  10
ATOM     10  C   UNL     1       3.506   4.827   0.034  0.00  0.00    +0.000 A 
ATOM     11  C   UNL     1       4.826   4.402  -0.072  0.00  0.00    +0.000 A 
ATOM     12  C   UNL     1       5.654   4.629   1.050  0.00  0.00    +0.000 A 
ATOM     13  N   UNL     1       5.048   4.515   2.299  0.00  0.00    +0.000 NA
ATOM     14  C   UNL     1       3.744   4.679   2.378  0.00  0.00    +0.000 A 
ATOM     15  N   UNL     1       3.075   4.560   3.682  0.00  0.00    +0.000 N 
ATOM     16  N   UNL     1       2.988   4.964   1.236  0.00  0.00    +0.000 NA
ATOM     17  H   UNL     1       2.065   4.686   3.750  0.00  0.00    +0.000 HD
BRANCH  15  18
ATOM     18  C   UNL     1       3.861   4.261   4.887  0.00  0.00    +0.000 A 
ATOM     19  C   UNL     1       3.554   3.133   5.629  0.00  0.00    +0.000 A 
ATOM     20  C   UNL     1       4.133   3.120   6.920  0.00  0.00    +0.000 A 
ATOM     21  C   UNL     1       5.147   3.880   7.294  0.00  0.00    +0.000 A 
ATOM     22  C   UNL     1       5.444   4.939   6.482  0.00  0.00    +0.000 A 
ATOM     23  C   UNL     1       4.826   5.092   5.264  0.00  0.00    +0.000 A 
ATOM     24  O   UNL     1       6.405   5.896   6.904  0.00  0.00    +0.000 OA
ATOM     25  C   UNL     1       6.721   7.000   6.069  0.00  0.00    +0.000 C 
ATOM     26  C   UNL     1       7.265   6.493   4.743  0.00  0.00    +0.000 C 
ATOM     27  O   UNL     1       5.888   3.611   8.475  0.00  0.00    +0.000 OA
ENDBRANCH  15  18
ENDBRANCH   9  10
BRANCH   1  32
ATOM     28  C   UNL     1       2.775   0.771  -1.204  0.00  0.00    +0.000 A 
ATOM     29  C   UNL     1       3.489   0.231  -2.261  0.00  0.00    +0.000 A 
ATOM     30  C   UNL     1       3.974   1.194  -3.177  0.00  0.00    +0.000 A 
ATOM     31  C   UNL     1       3.523   2.432  -3.271  0.00  0.00    +0.000 A 
ATOM     32  C   UNL     1       2.766   2.885  -2.226  0.00  0.00    +0.000 A 
ATOM     33  C   UNL     1       2.363   2.034  -1.225  0.00  0.00    +0.000 A 
BRANCH  28  35
ATOM     34  F   UNL     1       0.938  -0.066  -0.042  0.00  0.00    +0.000 F 
ATOM     35  C   UNL     1       2.268  -0.066  -0.042  0.00  0.00    +0.000 C 
ATOM     36  F   UNL     1       2.711   0.448   1.102  0.00  0.00    +0.000 F 
ATOM     37  F   UNL     1       2.711  -1.314  -0.168  0.00  0.00    +0.000 F 
ENDBRANCH  28  35
ENDBRANCH   1  32
TORSDOF 4
