
 OpenBabel03132512093D

 54 59  0  0  0  0  0  0  0  0999 V2000
    1.0872    0.0038   -0.0488 C   0  0  0  0  0  0  0  0  0  0  0  0
    0.6139    1.3166    0.2141 O   0  0  0  0  0  0  0  0  0  0  0  0
    0.9569    1.9647    1.4301 C   0  0  0  0  0  0  0  0  0  0  0  0
    0.0213    2.7625    2.0678 C   0  0  0  0  0  0  0  0  0  0  0  0
    0.5834    3.6934    2.9731 C   0  0  0  0  0  0  0  0  0  0  0  0
    1.8051    3.6128    3.4680 C   0  0  0  0  0  0  0  0  0  0  0  0
    2.2353    4.4288    4.6761 C   0  0  0  0  0  0  0  0  0  0  0  0
    1.7733    4.1857    5.8939 N   0  0  0  0  0  0  0  0  0  0  0  0
    2.4575    4.9260    6.7648 N   0  0  0  0  0  0  0  0  0  0  0  0
    2.4296    5.0996    8.1645 N   0  0  0  0  0  0  0  0  0  0  0  0
    3.2949    5.9606    8.7426 C   0  0  0  0  0  0  0  0  0  0  0  0
    4.1898    6.6714    8.0071 C   0  0  0  0  0  0  0  0  0  0  0  0
    4.2659    6.5426    6.6637 C   0  0  0  0  0  0  0  0  0  0  0  0
    3.4013    5.6689    6.0014 C   0  0  0  0  0  0  0  0  0  0  0  0
    3.2092    5.3148    4.7205 C   0  0  0  0  0  0  0  0  0  0  0  0
    3.9836    5.8459    3.5252 C   0  0  0  0  0  0  0  0  0  0  0  0
    3.2798    6.4325    2.4790 C   0  0  0  0  0  0  0  0  0  0  0  0
    4.0167    7.2738    1.6157 C   0  0  0  0  0  0  0  0  0  0  0  0
    5.3348    6.8975    1.3636 N   0  0  0  0  0  0  0  0  0  0  0  0
    5.9447    6.1303    2.2421 C   0  0  0  0  0  0  0  0  0  0  0  0
    7.3338    5.7134    2.0021 N   0  0  0  0  0  0  0  0  0  0  0  0
    8.0337    6.1534    0.7866 C   0  0  0  0  0  0  0  0  0  0  0  0
    8.4514    5.2287   -0.1563 C   0  0  0  0  0  0  0  0  0  0  0  0
    9.2884    5.7713   -1.1598 C   0  0  0  0  0  0  0  0  0  0  0  0
    9.3953    7.0595   -1.4301 C   0  0  0  0  0  0  0  0  0  0  0  0
    8.9022    7.9211   -0.4899 C   0  0  0  0  0  0  0  0  0  0  0  0
    8.1865    7.4573    0.5874 C   0  0  0  0  0  0  0  0  0  0  0  0
    9.1330    9.3153   -0.6288 O   0  0  0  0  0  0  0  0  0  0  0  0
    8.6255   10.2192    0.3417 C   0  0  0  0  0  0  0  0  0  0  0  0
    7.1112   10.1018    0.4005 C   0  0  0  0  0  0  0  0  0  0  0  0
    9.9904    7.5249   -2.6325 O   0  0  0  0  0  0  0  0  0  0  0  0
    5.2861    5.7069    3.4018 N   0  0  0  0  0  0  0  0  0  0  0  0
    2.6623    2.7560    2.8351 C   0  0  0  0  0  0  0  0  0  0  0  0
    2.2151    1.9081    1.8507 C   0  0  0  0  0  0  0  0  0  0  0  0
    0.7305   -0.3192   -1.0045 H   0  0  0  0  0  0  0  0  0  0  0  0
    0.7305   -0.6623    0.7088 H   0  0  0  0  0  0  0  0  0  0  0  0
    2.1572    0.0038   -0.0488 H   0  0  0  0  0  0  0  0  0  0  0  0
   -1.0311    2.6821    1.8919 H   0  0  0  0  0  0  0  0  0  0  0  0
   -0.0236    4.5202    3.2778 H   0  0  0  0  0  0  0  0  0  0  0  0
    3.2754    6.0861    9.8051 H   0  0  0  0  0  0  0  0  0  0  0  0
    4.8510    7.3502    8.5041 H   0  0  0  0  0  0  0  0  0  0  0  0
    4.9860    7.1080    6.1099 H   0  0  0  0  0  0  0  0  0  0  0  0
    2.2343    6.2558    2.3353 H   0  0  0  0  0  0  0  0  0  0  0  0
    3.5867    8.1511    1.1797 H   0  0  0  0  0  0  0  0  0  0  0  0
    7.8120    5.1189    2.6791 H   0  0  0  0  0  0  0  0  0  0  0  0
    8.1670    4.1975   -0.1283 H   0  0  0  0  0  0  0  0  0  0  0  0
    9.8756    5.0905   -1.7400 H   0  0  0  0  0  0  0  0  0  0  0  0
    7.7483    8.1531    1.2721 H   0  0  0  0  0  0  0  0  0  0  0  0
    9.0390    9.9829    1.2999 H   0  0  0  0  0  0  0  0  0  0  0  0
    8.8956   11.2192    0.0735 H   0  0  0  0  0  0  0  0  0  0  0  0
    6.7288   10.7828    1.1318 H   0  0  0  0  0  0  0  0  0  0  0  0
    6.6977   10.3380   -0.5576 H   0  0  0  0  0  0  0  0  0  0  0  0
    3.6962    2.7456    3.1104 H   0  0  0  0  0  0  0  0  0  0  0  0
    2.8868    1.1957    1.4192 H   0  0  0  0  0  0  0  0  0  0  0  0
  1  2  1  0  0  0  0
  1 35  1  0  0  0  0
  1 36  1  0  0  0  0
  1 37  1  0  0  0  0
  2  3  1  0  0  0  0
  3  4  1  0  0  0  0
  3 34  2  0  0  0  0
  4  5  2  0  0  0  0
  4 38  1  0  0  0  0
  5  6  1  0  0  0  0
  5 39  1  0  0  0  0
  6  7  1  0  0  0  0
  6 33  2  0  0  0  0
  7  8  2  0  0  0  0
  7 15  1  0  0  0  0
  8  9  1  0  0  0  0
  9 10  1  0  0  0  0
  9 14  1  0  0  0  0
 10 11  2  0  0  0  0
 11 12  1  0  0  0  0
 11 40  1  0  0  0  0
 12 13  2  0  0  0  0
 12 41  1  0  0  0  0
 13 14  1  0  0  0  0
 13 42  1  0  0  0  0
 14 15  2  0  0  0  0
 15 16  1  0  0  0  0
 16 17  1  0  0  0  0
 16 32  2  0  0  0  0
 17 18  2  0  0  0  0
 17 43  1  0  0  0  0
 18 19  1  0  0  0  0
 18 44  1  0  0  0  0
 19 20  2  0  0  0  0
 20 21  1  0  0  0  0
 20 32  1  0  0  0  0
 21 22  1  0  0  0  0
 21 45  1  0  0  0  0
 22 23  1  0  0  0  0
 22 27  2  0  0  0  0
 23 24  2  0  0  0  0
 23 46  1  0  0  0  0
 24 25  1  0  0  0  0
 24 47  1  0  0  0  0
 25 26  2  0  0  0  0
 25 31  1  0  0  0  0
 26 27  1  0  0  0  0
 26 28  1  0  0  0  0
 27 48  1  0  0  0  0
 28 29  1  0  0  0  0
 29 30  1  0  0  0  0
 29 49  1  0  0  0  0
 29 50  1  0  0  0  0
 30 31  1  0  0  0  0
 30 51  1  0  0  0  0
 30 52  1  0  0  0  0
 33 34  1  0  0  0  0
 33 53  1  0  0  0  0
 34 54  1  0  0  0  0
M  END
