REMARK  Name = 
REMARK  3 active torsions:
REMARK  status: ('A' for Active; 'I' for Inactive)
REMARK    1  A    between atoms: C_5  and  C_6
REMARK    2  A    between atoms: C_14  and  C_15
REMARK    3  A    between atoms: N_20  and  C_21
REMARK                            x       y       z     vdW  Elec       q    Type
REMARK                         _______ _______ _______ _____ _____    ______ ____
ROOT
ATOM      1  C   UNL     1      -3.703   1.278  -2.176  0.00  0.00    +0.000 A 
ATOM      2  C   UNL     1      -2.800   0.587  -2.977  0.00  0.00    +0.000 A 
ATOM      3  C   UNL     1      -2.616   1.078  -4.289  0.00  0.00    +0.000 A 
ATOM      4  N   UNL     1      -2.673   2.462  -4.444  0.00  0.00    +0.000 NA
ATOM      5  C   UNL     1      -3.330   3.164  -3.546  0.00  0.00    +0.000 A 
ATOM      6  N   UNL     1      -3.405   4.627  -3.681  0.00  0.00    +0.000 N 
ATOM      7  N   UNL     1      -3.958   2.536  -2.465  0.00  0.00    +0.000 NA
ATOM      8  H   UNL     1      -3.912   5.177  -2.988  0.00  0.00    +0.000 HD
ENDROOT
BRANCH   6   9
ATOM      9  C   UNL     1      -2.748   5.295  -4.813  0.00  0.00    +0.000 A 
ATOM     10  C   UNL     1      -1.851   6.316  -4.519  0.00  0.00    +0.000 A 
ATOM     11  C   UNL     1      -0.949   6.678  -5.545  0.00  0.00    +0.000 A 
ATOM     12  C   UNL     1      -1.439   6.618  -6.848  0.00  0.00    +0.000 A 
ATOM     13  C   UNL     1      -2.461   5.826  -7.096  0.00  0.00    +0.000 A 
ATOM     14  C   UNL     1      -3.036   5.060  -6.075  0.00  0.00    +0.000 A 
ATOM     15  O   UNL     1      -2.984   5.747  -8.413  0.00  0.00    +0.000 OA
ATOM     16  C   UNL     1      -4.086   4.894  -8.689  0.00  0.00    +0.000 C 
ATOM     17  C   UNL     1      -3.712   3.459  -8.356  0.00  0.00    +0.000 C 
ATOM     18  O   UNL     1      -0.852   7.393  -7.883  0.00  0.00    +0.000 OA
ENDBRANCH   6   9
BRANCH   1  27
ATOM     19  C   UNL     1      -3.466   0.011  -0.002  0.00  0.00    +0.000 A 
ATOM     20  N   UNL     1      -4.225  -0.533   0.938  0.00  0.00    +0.000 NA
ATOM     21  N   UNL     1      -5.504  -0.339   0.619  0.00  0.00    +0.000 N 
ATOM     22  N   UNL     1      -6.741  -0.674   1.208  0.00  0.00    +0.000 NA
ATOM     23  C   UNL     1      -7.887  -0.308   0.595  0.00  0.00    +0.000 A 
ATOM     24  C   UNL     1      -7.879   0.372  -0.581  0.00  0.00    +0.000 A 
ATOM     25  C   UNL     1      -6.725   0.726  -1.190  0.00  0.00    +0.000 A 
ATOM     26  C   UNL     1      -5.503   0.379  -0.610  0.00  0.00    +0.000 A 
ATOM     27  C   UNL     1      -4.213   0.561  -0.937  0.00  0.00    +0.000 A 
BRANCH  19  32
ATOM     28  F   UNL     1       2.137  -0.011  -0.002  0.00  0.00    +0.000 F 
ATOM     29  C   UNL     1       0.780  -0.001   0.005  0.00  0.00    +0.000 A 
ATOM     30  C   UNL     1       0.127  -1.186   0.005  0.00  0.00    +0.000 A 
ATOM     31  C   UNL     1      -1.259  -1.177  -0.006  0.00  0.00    +0.000 A 
ATOM     32  C   UNL     1      -1.946   0.002  -0.001  0.00  0.00    +0.000 A 
ATOM     33  C   UNL     1      -1.234   1.192   0.005  0.00  0.00    +0.000 A 
ATOM     34  C   UNL     1       0.152   1.188  -0.006  0.00  0.00    +0.000 A 
ENDBRANCH  19  32
ENDBRANCH   1  27
TORSDOF 3
