
 OpenBabel03132514253D

 54 59  0  0  0  0  0  0  0  0999 V2000
    1.0419   -0.0639    0.0645 C   0  0  0  0  0  0  0  0  0  0  0  0
    0.5686   -0.2922    1.3837 O   0  0  0  0  0  0  0  0  0  0  0  0
    0.9116   -1.4906    2.0636 C   0  0  0  0  0  0  0  0  0  0  0  0
   -0.0380   -2.0953    2.8706 C   0  0  0  0  0  0  0  0  0  0  0  0
    0.5056   -2.9815    3.8303 C   0  0  0  0  0  0  0  0  0  0  0  0
    1.7219   -3.4929    3.7734 C   0  0  0  0  0  0  0  0  0  0  0  0
    2.1308   -4.6835    4.6253 C   0  0  0  0  0  0  0  0  0  0  0  0
    1.7204   -5.9380    4.5097 N   0  0  0  0  0  0  0  0  0  0  0  0
    2.4535   -6.7023    5.3179 N   0  0  0  0  0  0  0  0  0  0  0  0
    2.4909   -8.0783    5.6264 N   0  0  0  0  0  0  0  0  0  0  0  0
    3.3935   -8.5319    6.5230 C   0  0  0  0  0  0  0  0  0  0  0  0
    4.2647   -7.6926    7.1425 C   0  0  0  0  0  0  0  0  0  0  0  0
    4.2787   -6.3661    6.8830 C   0  0  0  0  0  0  0  0  0  0  0  0
    3.3728   -5.8301    5.9657 C   0  0  0  0  0  0  0  0  0  0  0  0
    3.1184   -4.5992    5.4931 C   0  0  0  0  0  0  0  0  0  0  0  0
    3.8460   -3.3256    5.8916 C   0  0  0  0  0  0  0  0  0  0  0  0
    3.1376   -2.2980    6.5051 C   0  0  0  0  0  0  0  0  0  0  0  0
    3.8811   -1.4215    7.3266 C   0  0  0  0  0  0  0  0  0  0  0  0
    5.1805   -1.1377    6.9099 N   0  0  0  0  0  0  0  0  0  0  0  0
    5.7855   -1.9990    6.1197 C   0  0  0  0  0  0  0  0  0  0  0  0
    7.1548   -1.7257    5.6601 N   0  0  0  0  0  0  0  0  0  0  0  0
    7.8405   -0.4963    6.0832 C   0  0  0  0  0  0  0  0  0  0  0  0
    8.3217    0.4155    5.1582 C   0  0  0  0  0  0  0  0  0  0  0  0
    9.2399    1.3478    5.6964 C   0  0  0  0  0  0  0  0  0  0  0  0
    9.3802    1.6027    6.9846 C   0  0  0  0  0  0  0  0  0  0  0  0
    8.8235    0.6998    7.8473 C   0  0  0  0  0  0  0  0  0  0  0  0
    8.0212   -0.3160    7.3863 C   0  0  0  0  0  0  0  0  0  0  0  0
    9.0781    0.8134    9.2396 O   0  0  0  0  0  0  0  0  0  0  0  0
    8.5051   -0.1188   10.1446 C   0  0  0  0  0  0  0  0  0  0  0  0
    6.9897   -0.0584   10.0423 C   0  0  0  0  0  0  0  0  0  0  0  0
   10.0720    2.7526    7.4488 O   0  0  0  0  0  0  0  0  0  0  0  0
    5.1403   -3.1718    5.7120 N   0  0  0  0  0  0  0  0  0  0  0  0
    2.5935   -2.8939    2.9068 C   0  0  0  0  0  0  0  0  0  0  0  0
    2.1651   -1.9276    2.0289 C   0  0  0  0  0  0  0  0  0  0  0  0
    0.6853    0.8829   -0.2836 H   0  0  0  0  0  0  0  0  0  0  0  0
    0.6853   -0.8388   -0.5815 H   0  0  0  0  0  0  0  0  0  0  0  0
    2.1119   -0.0639    0.0645 H   0  0  0  0  0  0  0  0  0  0  0  0
   -1.0875   -1.9091    2.7767 H   0  0  0  0  0  0  0  0  0  0  0  0
   -0.1116   -3.2564    4.6600 H   0  0  0  0  0  0  0  0  0  0  0  0
    3.4234   -9.5769    6.7510 H   0  0  0  0  0  0  0  0  0  0  0  0
    4.9572   -8.0921    7.8537 H   0  0  0  0  0  0  0  0  0  0  0  0
    4.9813   -5.7292    7.3787 H   0  0  0  0  0  0  0  0  0  0  0  0
    2.0840   -2.1776    6.3623 H   0  0  0  0  0  0  0  0  0  0  0  0
    3.4694   -0.9988    8.2192 H   0  0  0  0  0  0  0  0  0  0  0  0
    7.6291   -2.3892    5.0475 H   0  0  0  0  0  0  0  0  0  0  0  0
    8.0258    0.4149    4.1299 H   0  0  0  0  0  0  0  0  0  0  0  0
    9.8640    1.8837    5.0121 H   0  0  0  0  0  0  0  0  0  0  0  0
    7.5376   -0.9676    8.0838 H   0  0  0  0  0  0  0  0  0  0  0  0
    8.8400   -1.1052    9.9002 H   0  0  0  0  0  0  0  0  0  0  0  0
    8.8051    0.1226   11.1429 H   0  0  0  0  0  0  0  0  0  0  0  0
    6.5579   -0.7609   10.7242 H   0  0  0  0  0  0  0  0  0  0  0  0
    6.6548    0.9280   10.2867 H   0  0  0  0  0  0  0  0  0  0  0  0
    3.6240   -3.1816    2.9125 H   0  0  0  0  0  0  0  0  0  0  0  0
    2.8476   -1.5237    1.3107 H   0  0  0  0  0  0  0  0  0  0  0  0
  1  2  1  0  0  0  0
  1 35  1  0  0  0  0
  1 36  1  0  0  0  0
  1 37  1  0  0  0  0
  2  3  1  0  0  0  0
  3  4  1  0  0  0  0
  3 34  2  0  0  0  0
  4  5  2  0  0  0  0
  4 38  1  0  0  0  0
  5  6  1  0  0  0  0
  5 39  1  0  0  0  0
  6  7  1  0  0  0  0
  6 33  2  0  0  0  0
  7  8  2  0  0  0  0
  7 15  1  0  0  0  0
  8  9  1  0  0  0  0
  9 10  1  0  0  0  0
  9 14  1  0  0  0  0
 10 11  2  0  0  0  0
 11 12  1  0  0  0  0
 11 40  1  0  0  0  0
 12 13  2  0  0  0  0
 12 41  1  0  0  0  0
 13 14  1  0  0  0  0
 13 42  1  0  0  0  0
 14 15  2  0  0  0  0
 15 16  1  0  0  0  0
 16 17  1  0  0  0  0
 16 32  2  0  0  0  0
 17 18  2  0  0  0  0
 17 43  1  0  0  0  0
 18 19  1  0  0  0  0
 18 44  1  0  0  0  0
 19 20  2  0  0  0  0
 20 21  1  0  0  0  0
 20 32  1  0  0  0  0
 21 22  1  0  0  0  0
 21 45  1  0  0  0  0
 22 23  1  0  0  0  0
 22 27  2  0  0  0  0
 23 24  2  0  0  0  0
 23 46  1  0  0  0  0
 24 25  1  0  0  0  0
 24 47  1  0  0  0  0
 25 26  2  0  0  0  0
 25 31  1  0  0  0  0
 26 27  1  0  0  0  0
 26 28  1  0  0  0  0
 27 48  1  0  0  0  0
 28 29  1  0  0  0  0
 29 30  1  0  0  0  0
 29 49  1  0  0  0  0
 29 50  1  0  0  0  0
 30 31  1  0  0  0  0
 30 51  1  0  0  0  0
 30 52  1  0  0  0  0
 33 34  1  0  0  0  0
 33 53  1  0  0  0  0
 34 54  1  0  0  0  0
M  END
