
 OpenBabel03132512093D

 53 58  0  0  0  0  0  0  0  0999 V2000
    0.9378   -0.0663   -0.0416 F   0  0  0  0  0  0  0  0  0  0  0  0
    2.2678   -0.0663   -0.0416 C   0  0  0  0  0  0  0  0  0  0  0  0
    2.7111    0.4482    1.1019 F   0  0  0  0  0  0  0  0  0  0  0  0
    2.7111   -1.3139   -0.1677 F   0  0  0  0  0  0  0  0  0  0  0  0
    2.7745    0.7714   -1.2043 C   0  0  0  0  0  0  0  0  0  0  0  0
    3.4892    0.2313   -2.2608 C   0  0  0  0  0  0  0  0  0  0  0  0
    3.9738    1.1945   -3.1770 C   0  0  0  0  0  0  0  0  0  0  0  0
    3.5234    2.4324   -3.2705 C   0  0  0  0  0  0  0  0  0  0  0  0
    2.7663    2.8845   -2.2256 C   0  0  0  0  0  0  0  0  0  0  0  0
    2.3649    4.3495   -2.1702 C   0  0  0  0  0  0  0  0  0  0  0  0
    1.6452    4.9734   -3.0913 N   0  0  0  0  0  0  0  0  0  0  0  0
    1.4835    6.2421   -2.7185 N   0  0  0  0  0  0  0  0  0  0  0  0
    0.8310    7.3667   -3.2657 N   0  0  0  0  0  0  0  0  0  0  0  0
    0.8661    8.5417   -2.6004 C   0  0  0  0  0  0  0  0  0  0  0  0
    1.5220    8.6701   -1.4170 C   0  0  0  0  0  0  0  0  0  0  0  0
    2.1604    7.6263   -0.8424 C   0  0  0  0  0  0  0  0  0  0  0  0
    2.1631    6.3821   -1.4760 C   0  0  0  0  0  0  0  0  0  0  0  0
    2.6851    5.1770   -1.1964 C   0  0  0  0  0  0  0  0  0  0  0  0
    3.5058    4.8270    0.0343 C   0  0  0  0  0  0  0  0  0  0  0  0
    4.8256    4.4016   -0.0718 C   0  0  0  0  0  0  0  0  0  0  0  0
    5.6543    4.6292    1.0495 C   0  0  0  0  0  0  0  0  0  0  0  0
    5.0478    4.5151    2.2991 N   0  0  0  0  0  0  0  0  0  0  0  0
    3.7442    4.6786    2.3783 C   0  0  0  0  0  0  0  0  0  0  0  0
    3.0750    4.5603    3.6818 N   0  0  0  0  0  0  0  0  0  0  0  0
    3.8613    4.2610    4.8872 C   0  0  0  0  0  0  0  0  0  0  0  0
    3.5538    3.1326    5.6294 C   0  0  0  0  0  0  0  0  0  0  0  0
    4.1331    3.1201    6.9202 C   0  0  0  0  0  0  0  0  0  0  0  0
    5.1467    3.8798    7.2937 C   0  0  0  0  0  0  0  0  0  0  0  0
    5.4440    4.9392    6.4821 C   0  0  0  0  0  0  0  0  0  0  0  0
    4.8263    5.0916    5.2643 C   0  0  0  0  0  0  0  0  0  0  0  0
    6.4050    5.8958    6.9039 O   0  0  0  0  0  0  0  0  0  0  0  0
    6.7214    7.0000    6.0690 C   0  0  0  0  0  0  0  0  0  0  0  0
    7.2651    6.4932    4.7431 C   0  0  0  0  0  0  0  0  0  0  0  0
    5.8880    3.6108    8.4746 O   0  0  0  0  0  0  0  0  0  0  0  0
    2.9879    4.9637    1.2361 N   0  0  0  0  0  0  0  0  0  0  0  0
    2.3630    2.0337   -1.2250 C   0  0  0  0  0  0  0  0  0  0  0  0
    3.6593   -0.8191   -2.3737 H   0  0  0  0  0  0  0  0  0  0  0  0
    4.7599    0.8993   -3.8402 H   0  0  0  0  0  0  0  0  0  0  0  0
    3.7394    3.0484   -4.1183 H   0  0  0  0  0  0  0  0  0  0  0  0
    0.3656    9.3918   -3.0150 H   0  0  0  0  0  0  0  0  0  0  0  0
    1.5333    9.6216   -0.9277 H   0  0  0  0  0  0  0  0  0  0  0  0
    2.6617    7.7531    0.0943 H   0  0  0  0  0  0  0  0  0  0  0  0
    5.1942    3.9265   -0.9568 H   0  0  0  0  0  0  0  0  0  0  0  0
    6.6903    4.8756    0.9451 H   0  0  0  0  0  0  0  0  0  0  0  0
    2.0650    4.6859    3.7499 H   0  0  0  0  0  0  0  0  0  0  0  0
    2.9344    2.3422    5.2601 H   0  0  0  0  0  0  0  0  0  0  0  0
    3.7213    2.4483    7.6442 H   0  0  0  0  0  0  0  0  0  0  0  0
    5.1254    5.8868    4.6139 H   0  0  0  0  0  0  0  0  0  0  0  0
    5.8391    7.5796    5.8945 H   0  0  0  0  0  0  0  0  0  0  0  0
    7.4594    7.6091    6.5477 H   0  0  0  0  0  0  0  0  0  0  0  0
    7.5036    7.3253    4.1140 H   0  0  0  0  0  0  0  0  0  0  0  0
    8.1475    5.9136    4.9176 H   0  0  0  0  0  0  0  0  0  0  0  0
    1.7114    2.3915   -0.4553 H   0  0  0  0  0  0  0  0  0  0  0  0
  1  2  1  0  0  0  0
  2  3  1  0  0  0  0
  2  4  1  0  0  0  0
  2  5  1  0  0  0  0
  5  6  1  0  0  0  0
  5 36  2  0  0  0  0
  6  7  2  0  0  0  0
  6 37  1  0  0  0  0
  7  8  1  0  0  0  0
  7 38  1  0  0  0  0
  8  9  2  0  0  0  0
  8 39  1  0  0  0  0
  9 10  1  0  0  0  0
  9 36  1  0  0  0  0
 10 11  2  0  0  0  0
 10 18  1  0  0  0  0
 11 12  1  0  0  0  0
 12 13  1  0  0  0  0
 12 17  1  0  0  0  0
 13 14  2  0  0  0  0
 14 15  1  0  0  0  0
 14 40  1  0  0  0  0
 15 16  2  0  0  0  0
 15 41  1  0  0  0  0
 16 17  1  0  0  0  0
 16 42  1  0  0  0  0
 17 18  2  0  0  0  0
 18 19  1  0  0  0  0
 19 20  1  0  0  0  0
 19 35  2  0  0  0  0
 20 21  2  0  0  0  0
 20 43  1  0  0  0  0
 21 22  1  0  0  0  0
 21 44  1  0  0  0  0
 22 23  2  0  0  0  0
 23 24  1  0  0  0  0
 23 35  1  0  0  0  0
 24 25  1  0  0  0  0
 24 45  1  0  0  0  0
 25 26  1  0  0  0  0
 25 30  2  0  0  0  0
 26 27  2  0  0  0  0
 26 46  1  0  0  0  0
 27 28  1  0  0  0  0
 27 47  1  0  0  0  0
 28 29  2  0  0  0  0
 28 34  1  0  0  0  0
 29 30  1  0  0  0  0
 29 31  1  0  0  0  0
 30 48  1  0  0  0  0
 31 32  1  0  0  0  0
 32 33  1  0  0  0  0
 32 49  1  0  0  0  0
 32 50  1  0  0  0  0
 33 34  1  0  0  0  0
 33 51  1  0  0  0  0
 33 52  1  0  0  0  0
 36 53  1  0  0  0  0
M  END
