REMARK  Name = 
REMARK  4 active torsions:
REMARK  status: ('A' for Active; 'I' for Inactive)
REMARK    1  A    between atoms: C_2  and  C_5
REMARK    2  A    between atoms: C_9  and  C_10
REMARK    3  A    between atoms: C_18  and  C_19
REMARK    4  A    between atoms: N_24  and  C_25
REMARK                            x       y       z     vdW  Elec       q    Type
REMARK                         _______ _______ _______ _____ _____    ______ ____
ROOT
ATOM      1  C   UNL     1       2.736   4.094   2.827  0.00  0.00    +0.000 A 
ATOM      2  N   UNL     1       3.671   4.946   3.223  0.00  0.00    +0.000 NA
ATOM      3  N   UNL     1       3.161   6.176   3.204  0.00  0.00    +0.000 N 
ATOM      4  N   UNL     1       3.651   7.463   3.509  0.00  0.00    +0.000 NA
ATOM      5  C   UNL     1       2.837   8.532   3.372  0.00  0.00    +0.000 A 
ATOM      6  C   UNL     1       1.551   8.398   2.954  0.00  0.00    +0.000 A 
ATOM      7  C   UNL     1       1.028   7.191   2.642  0.00  0.00    +0.000 A 
ATOM      8  C   UNL     1       1.815   6.043   2.760  0.00  0.00    +0.000 A 
ATOM      9  C   UNL     1       1.619   4.732   2.546  0.00  0.00    +0.000 A 
ENDROOT
BRANCH   9  10
ATOM     10  C   UNL     1       0.327   4.094   2.063  0.00  0.00    +0.000 A 
ATOM     11  C   UNL     1      -0.311   3.137   2.845  0.00  0.00    +0.000 A 
ATOM     12  C   UNL     1      -1.692   2.952   2.615  0.00  0.00    +0.000 A 
ATOM     13  N   UNL     1      -2.122   3.085   1.296  0.00  0.00    +0.000 NA
ATOM     14  C   UNL     1      -1.390   3.800   0.469  0.00  0.00    +0.000 A 
ATOM     15  N   UNL     1      -1.815   3.956  -0.929  0.00  0.00    +0.000 N 
ATOM     16  N   UNL     1      -0.211   4.415   0.906  0.00  0.00    +0.000 NA
ATOM     17  H   UNL     1      -1.252   4.509  -1.575  0.00  0.00    +0.000 HD
BRANCH  15  18
ATOM     18  C   UNL     1      -3.052   3.314  -1.397  0.00  0.00    +0.000 A 
ATOM     19  C   UNL     1      -3.008   2.375  -2.414  0.00  0.00    +0.000 A 
ATOM     20  C   UNL     1      -4.277   2.048  -2.948  0.00  0.00    +0.000 A 
ATOM     21  C   UNL     1      -5.428   2.294  -2.349  0.00  0.00    +0.000 A 
ATOM     22  C   UNL     1      -5.394   3.179  -1.307  0.00  0.00    +0.000 A 
ATOM     23  C   UNL     1      -4.199   3.645  -0.814  0.00  0.00    +0.000 A 
ATOM     24  O   UNL     1      -6.611   3.624  -0.726  0.00  0.00    +0.000 OA
ATOM     25  C   UNL     1      -6.587   4.543   0.356  0.00  0.00    +0.000 C 
ATOM     26  C   UNL     1      -5.825   3.934   1.521  0.00  0.00    +0.000 C 
ATOM     27  O   UNL     1      -6.635   1.673  -2.764  0.00  0.00    +0.000 OA
ENDBRANCH  15  18
ENDBRANCH   9  10
BRANCH   1  32
ATOM     28  C   UNL     1       2.794   0.694   1.298  0.00  0.00    +0.000 A 
ATOM     29  C   UNL     1       3.172  -0.127   2.348  0.00  0.00    +0.000 A 
ATOM     30  C   UNL     1       3.195   0.524   3.604  0.00  0.00    +0.000 A 
ATOM     31  C   UNL     1       3.222   1.834   3.768  0.00  0.00    +0.000 A 
ATOM     32  C   UNL     1       2.906   2.591   2.674  0.00  0.00    +0.000 A 
ATOM     33  C   UNL     1       2.739   2.013   1.439  0.00  0.00    +0.000 A 
BRANCH  28  35
ATOM     34  F   UNL     1       0.958   0.090  -0.003  0.00  0.00    +0.000 F 
ATOM     35  C   UNL     1       2.288   0.090  -0.003  0.00  0.00    +0.000 C 
ATOM     36  F   UNL     1       2.731  -1.159  -0.114  0.00  0.00    +0.000 F 
ATOM     37  F   UNL     1       2.731   0.812  -1.028  0.00  0.00    +0.000 F 
ENDBRANCH  28  35
ENDBRANCH   1  32
TORSDOF 4
