REMARK  Name = 
REMARK  4 active torsions:
REMARK  status: ('A' for Active; 'I' for Inactive)
REMARK    1  A    between atoms: C_2  and  C_5
REMARK    2  A    between atoms: C_8  and  C_9
REMARK    3  A    between atoms: C_17  and  C_18
REMARK    4  A    between atoms: N_23  and  C_24
REMARK                            x       y       z     vdW  Elec       q    Type
REMARK                         _______ _______ _______ _____ _____    ______ ____
ROOT
ATOM      1  C   UNL     1       4.280  -5.429  -1.104  0.00  0.00    +0.000 A 
ATOM      2  N   UNL     1       3.728  -6.268  -1.967  0.00  0.00    +0.000 NA
ATOM      3  N   UNL     1       4.404  -7.416  -1.936  0.00  0.00    +0.000 N 
ATOM      4  N   UNL     1       4.300  -8.652  -2.608  0.00  0.00    +0.000 NA
ATOM      5  C   UNL     1       5.182  -9.636  -2.325  0.00  0.00    +0.000 A 
ATOM      6  C   UNL     1       6.165  -9.466  -1.402  0.00  0.00    +0.000 A 
ATOM      7  C   UNL     1       6.316  -8.302  -0.732  0.00  0.00    +0.000 A 
ATOM      8  C   UNL     1       5.440  -7.243  -0.976  0.00  0.00    +0.000 A 
ATOM      9  C   UNL     1       5.305  -5.995  -0.500  0.00  0.00    +0.000 A 
ENDROOT
BRANCH   9  10
ATOM     10  C   UNL     1       6.185  -5.346   0.556  0.00  0.00    +0.000 A 
ATOM     11  C   UNL     1       5.638  -4.993   1.785  0.00  0.00    +0.000 A 
ATOM     12  C   UNL     1       6.521  -4.981   2.888  0.00  0.00    +0.000 A 
ATOM     13  N   UNL     1       7.827  -4.568   2.631  0.00  0.00    +0.000 NA
ATOM     14  C   UNL     1       8.284  -4.673   1.401  0.00  0.00    +0.000 A 
ATOM     15  N   UNL     1       9.656  -4.241   1.097  0.00  0.00    +0.000 N 
ATOM     16  N   UNL     1       7.479  -5.190   0.380  0.00  0.00    +0.000 NA
ATOM     17  H   UNL     1      10.016  -4.320   0.146  0.00  0.00    +0.000 HD
BRANCH  15  18
ATOM     18  C   UNL     1      10.508  -3.696   2.163  0.00  0.00    +0.000 A 
ATOM     19  C   UNL     1      11.079  -2.441   2.038  0.00  0.00    +0.000 A 
ATOM     20  C   UNL     1      12.152  -2.206   2.930  0.00  0.00    +0.000 A 
ATOM     21  C   UNL     1      12.389  -2.915   4.019  0.00  0.00    +0.000 A 
ATOM     22  C   UNL     1      11.742  -4.116   4.116  0.00  0.00    +0.000 A 
ATOM     23  C   UNL     1      10.774  -4.473   3.208  0.00  0.00    +0.000 A 
ATOM     24  O   UNL     1      12.075  -5.007   5.170  0.00  0.00    +0.000 OA
ATOM     25  C   UNL     1      11.410  -6.257   5.280  0.00  0.00    +0.000 C 
ATOM     26  C   UNL     1       9.918  -6.023   5.454  0.00  0.00    +0.000 C 
ATOM     27  O   UNL     1      13.267  -2.454   5.035  0.00  0.00    +0.000 OA
ENDBRANCH  15  18
ENDBRANCH   9  10
BRANCH   1  31
ATOM     28  C   UNL     1       2.899  -1.453  -0.378  0.00  0.00    +0.000 A 
ATOM     29  C   UNL     1       1.997  -2.499  -0.275  0.00  0.00    +0.000 A 
ATOM     30  C   UNL     1       2.598  -3.779  -0.317  0.00  0.00    +0.000 A 
ATOM     31  C   UNL     1       3.816  -4.021  -0.766  0.00  0.00    +0.000 A 
ATOM     32  C   UNL     1       4.637  -2.938  -0.910  0.00  0.00    +0.000 A 
ATOM     33  C   UNL     1       4.155  -1.660  -0.757  0.00  0.00    +0.000 A 
BRANCH  28  35
ATOM     34  F   UNL     1       1.062  -0.057  -0.054  0.00  0.00    +0.000 F 
ATOM     35  C   UNL     1       2.392  -0.057  -0.054  0.00  0.00    +0.000 C 
ATOM     36  F   UNL     1       2.836   0.800  -0.970  0.00  0.00    +0.000 F 
ATOM     37  F   UNL     1       2.836   0.309   1.146  0.00  0.00    +0.000 F 
ENDBRANCH  28  35
ENDBRANCH   1  31
TORSDOF 4
