REMARK  Name = 
REMARK  4 active torsions:
REMARK  status: ('A' for Active; 'I' for Inactive)
REMARK    1  A    between atoms: C_2  and  C_5
REMARK    2  A    between atoms: C_8  and  C_9
REMARK    3  A    between atoms: C_17  and  C_18
REMARK    4  A    between atoms: N_23  and  C_24
REMARK                            x       y       z     vdW  Elec       q    Type
REMARK                         _______ _______ _______ _____ _____    ______ ____
ROOT
ATOM      1  C   UNL     1       4.388  -5.495   0.176  0.00  0.00    +0.000 A 
ATOM      2  N   UNL     1       4.378  -6.298  -0.878  0.00  0.00    +0.000 NA
ATOM      3  N   UNL     1       4.931  -7.460  -0.533  0.00  0.00    +0.000 N 
ATOM      4  N   UNL     1       5.197  -8.675  -1.200  0.00  0.00    +0.000 NA
ATOM      5  C   UNL     1       5.791  -9.684  -0.527  0.00  0.00    +0.000 A 
ATOM      6  C   UNL     1       6.134  -9.561   0.782  0.00  0.00    +0.000 A 
ATOM      7  C   UNL     1       5.908  -8.420   1.471  0.00  0.00    +0.000 A 
ATOM      8  C   UNL     1       5.298  -7.337   0.836  0.00  0.00    +0.000 A 
ATOM      9  C   UNL     1       4.934  -6.100   1.212  0.00  0.00    +0.000 A 
ENDROOT
BRANCH   9  10
ATOM     10  C   UNL     1       5.120  -5.500   2.595  0.00  0.00    +0.000 A 
ATOM     11  C   UNL     1       4.044  -5.155   3.407  0.00  0.00    +0.000 A 
ATOM     12  C   UNL     1       4.264  -5.205   4.802  0.00  0.00    +0.000 A 
ATOM     13  N   UNL     1       5.535  -4.838   5.240  0.00  0.00    +0.000 NA
ATOM     14  C   UNL     1       6.539  -4.930   4.394  0.00  0.00    +0.000 A 
ATOM     15  N   UNL     1       7.891  -4.546   4.826  0.00  0.00    +0.000 N 
ATOM     16  N   UNL     1       6.335  -5.391   3.089  0.00  0.00    +0.000 NA
ATOM     17  H   UNL     1       8.673  -4.616   4.175  0.00  0.00    +0.000 HD
BRANCH  15  18
ATOM     18  C   UNL     1       8.115  -4.062   6.196  0.00  0.00    +0.000 A 
ATOM     19  C   UNL     1       8.732  -2.836   6.381  0.00  0.00    +0.000 A 
ATOM     20  C   UNL     1       9.266  -2.654   7.679  0.00  0.00    +0.000 A 
ATOM     21  C   UNL     1       8.929  -3.372   8.735  0.00  0.00    +0.000 A 
ATOM     22  C   UNL     1       8.261  -4.539   8.489  0.00  0.00    +0.000 A 
ATOM     23  C   UNL     1       7.822  -4.848   7.224  0.00  0.00    +0.000 A 
ATOM     24  O   UNL     1       8.017  -5.444   9.556  0.00  0.00    +0.000 OA
ATOM     25  C   UNL     1       7.324  -6.659   9.312  0.00  0.00    +0.000 C 
ATOM     26  C   UNL     1       5.938  -6.351   8.767  0.00  0.00    +0.000 C 
ATOM     27  O   UNL     1       9.244  -2.954  10.055  0.00  0.00    +0.000 OA
ENDBRANCH  15  18
ENDBRANCH   9  10
BRANCH   1  31
ATOM     28  C   UNL     1       2.918  -1.490  -0.019  0.00  0.00    +0.000 A 
ATOM     29  C   UNL     1       2.077  -2.526  -0.390  0.00  0.00    +0.000 A 
ATOM     30  C   UNL     1       2.580  -3.812  -0.082  0.00  0.00    +0.000 A 
ATOM     31  C   UNL     1       3.846  -4.075   0.189  0.00  0.00    +0.000 A 
ATOM     32  C   UNL     1       4.642  -3.003   0.480  0.00  0.00    +0.000 A 
ATOM     33  C   UNL     1       4.179  -1.718   0.329  0.00  0.00    +0.000 A 
BRANCH  28  35
ATOM     34  F   UNL     1       1.082  -0.057  -0.011  0.00  0.00    +0.000 F 
ATOM     35  C   UNL     1       2.412  -0.057  -0.011  0.00  0.00    +0.000 C 
ATOM     36  F   UNL     1       2.855   0.577  -1.093  0.00  0.00    +0.000 F 
ATOM     37  F   UNL     1       2.855   0.564   1.079  0.00  0.00    +0.000 F 
ENDBRANCH  28  35
ENDBRANCH   1  31
TORSDOF 4
