REMARK  Name = 
REMARK  5 active torsions:
REMARK  status: ('A' for Active; 'I' for Inactive)
REMARK    1  A    between atoms: C_1  and  O_2
REMARK    2  A    between atoms: O_2  and  C_3
REMARK    3  A    between atoms: C_6  and  C_7
REMARK    4  A    between atoms: C_15  and  C_16
REMARK    5  A    between atoms: N_21  and  C_22
REMARK                            x       y       z     vdW  Elec       q    Type
REMARK                         _______ _______ _______ _____ _____    ______ ____
ROOT
ATOM      1  C   UNL     1       3.846  -3.326   5.892  0.00  0.00    +0.000 A 
ATOM      2  C   UNL     1       3.138  -2.298   6.505  0.00  0.00    +0.000 A 
ATOM      3  C   UNL     1       3.881  -1.421   7.327  0.00  0.00    +0.000 A 
ATOM      4  N   UNL     1       5.181  -1.138   6.910  0.00  0.00    +0.000 NA
ATOM      5  C   UNL     1       5.785  -1.999   6.120  0.00  0.00    +0.000 A 
ATOM      6  N   UNL     1       7.155  -1.726   5.660  0.00  0.00    +0.000 N 
ATOM      7  N   UNL     1       5.140  -3.172   5.712  0.00  0.00    +0.000 NA
ATOM      8  H   UNL     1       7.629  -2.389   5.048  0.00  0.00    +0.000 HD
ENDROOT
BRANCH   6   9
ATOM      9  C   UNL     1       7.840  -0.496   6.083  0.00  0.00    +0.000 A 
ATOM     10  C   UNL     1       8.322   0.415   5.158  0.00  0.00    +0.000 A 
ATOM     11  C   UNL     1       9.240   1.348   5.696  0.00  0.00    +0.000 A 
ATOM     12  C   UNL     1       9.380   1.603   6.985  0.00  0.00    +0.000 A 
ATOM     13  C   UNL     1       8.823   0.700   7.847  0.00  0.00    +0.000 A 
ATOM     14  C   UNL     1       8.021  -0.316   7.386  0.00  0.00    +0.000 A 
ATOM     15  O   UNL     1       9.078   0.813   9.240  0.00  0.00    +0.000 OA
ATOM     16  C   UNL     1       8.505  -0.119  10.145  0.00  0.00    +0.000 C 
ATOM     17  C   UNL     1       6.990  -0.058  10.042  0.00  0.00    +0.000 C 
ATOM     18  O   UNL     1      10.072   2.753   7.449  0.00  0.00    +0.000 OA
ENDBRANCH   6   9
BRANCH   1  27
ATOM     19  C   UNL     1       2.131  -4.684   4.625  0.00  0.00    +0.000 A 
ATOM     20  N   UNL     1       1.720  -5.938   4.510  0.00  0.00    +0.000 NA
ATOM     21  N   UNL     1       2.454  -6.702   5.318  0.00  0.00    +0.000 N 
ATOM     22  N   UNL     1       2.491  -8.078   5.626  0.00  0.00    +0.000 NA
ATOM     23  C   UNL     1       3.393  -8.532   6.523  0.00  0.00    +0.000 A 
ATOM     24  C   UNL     1       4.265  -7.693   7.143  0.00  0.00    +0.000 A 
ATOM     25  C   UNL     1       4.279  -6.366   6.883  0.00  0.00    +0.000 A 
ATOM     26  C   UNL     1       3.373  -5.830   5.966  0.00  0.00    +0.000 A 
ATOM     27  C   UNL     1       3.118  -4.599   5.493  0.00  0.00    +0.000 A 
BRANCH  19  31
ATOM     28  C   UNL     1       0.912  -1.491   2.064  0.00  0.00    +0.000 A 
ATOM     29  C   UNL     1      -0.038  -2.095   2.871  0.00  0.00    +0.000 A 
ATOM     30  C   UNL     1       0.506  -2.982   3.830  0.00  0.00    +0.000 A 
ATOM     31  C   UNL     1       1.722  -3.493   3.773  0.00  0.00    +0.000 A 
ATOM     32  C   UNL     1       2.594  -2.894   2.907  0.00  0.00    +0.000 A 
ATOM     33  C   UNL     1       2.165  -1.928   2.029  0.00  0.00    +0.000 A 
BRANCH  28  35
ATOM     34  C   UNL     1       1.042  -0.064   0.065  0.00  0.00    +0.000 C 
ATOM     35  O   UNL     1       0.569  -0.292   1.384  0.00  0.00    +0.000 OA
ENDBRANCH  28  35
ENDBRANCH  19  31
ENDBRANCH   1  27
TORSDOF 4
