REMARK  Name = 
REMARK  5 active torsions:
REMARK  status: ('A' for Active; 'I' for Inactive)
REMARK    1  A    between atoms: C_1  and  O_2
REMARK    2  A    between atoms: O_2  and  C_3
REMARK    3  A    between atoms: C_6  and  C_7
REMARK    4  A    between atoms: C_15  and  C_16
REMARK    5  A    between atoms: N_21  and  C_22
REMARK                            x       y       z     vdW  Elec       q    Type
REMARK                         _______ _______ _______ _____ _____    ______ ____
ROOT
ATOM      1  C   UNL     1       3.984   5.846   3.525  0.00  0.00    +0.000 A 
ATOM      2  C   UNL     1       3.280   6.433   2.479  0.00  0.00    +0.000 A 
ATOM      3  C   UNL     1       4.017   7.274   1.616  0.00  0.00    +0.000 A 
ATOM      4  N   UNL     1       5.335   6.897   1.364  0.00  0.00    +0.000 NA
ATOM      5  C   UNL     1       5.945   6.130   2.242  0.00  0.00    +0.000 A 
ATOM      6  N   UNL     1       7.334   5.713   2.002  0.00  0.00    +0.000 N 
ATOM      7  N   UNL     1       5.286   5.707   3.402  0.00  0.00    +0.000 NA
ATOM      8  H   UNL     1       7.812   5.119   2.679  0.00  0.00    +0.000 HD
ENDROOT
BRANCH   6   9
ATOM      9  C   UNL     1       8.034   6.153   0.787  0.00  0.00    +0.000 A 
ATOM     10  C   UNL     1       8.451   5.229  -0.156  0.00  0.00    +0.000 A 
ATOM     11  C   UNL     1       9.288   5.771  -1.160  0.00  0.00    +0.000 A 
ATOM     12  C   UNL     1       9.395   7.059  -1.430  0.00  0.00    +0.000 A 
ATOM     13  C   UNL     1       8.902   7.921  -0.490  0.00  0.00    +0.000 A 
ATOM     14  C   UNL     1       8.187   7.457   0.587  0.00  0.00    +0.000 A 
ATOM     15  O   UNL     1       9.133   9.315  -0.629  0.00  0.00    +0.000 OA
ATOM     16  C   UNL     1       8.626  10.219   0.342  0.00  0.00    +0.000 C 
ATOM     17  C   UNL     1       7.111  10.102   0.401  0.00  0.00    +0.000 C 
ATOM     18  O   UNL     1       9.990   7.525  -2.632  0.00  0.00    +0.000 OA
ENDBRANCH   6   9
BRANCH   1  27
ATOM     19  C   UNL     1       2.235   4.429   4.676  0.00  0.00    +0.000 A 
ATOM     20  N   UNL     1       1.773   4.186   5.894  0.00  0.00    +0.000 NA
ATOM     21  N   UNL     1       2.458   4.926   6.765  0.00  0.00    +0.000 N 
ATOM     22  N   UNL     1       2.430   5.100   8.165  0.00  0.00    +0.000 NA
ATOM     23  C   UNL     1       3.295   5.961   8.743  0.00  0.00    +0.000 A 
ATOM     24  C   UNL     1       4.190   6.671   8.007  0.00  0.00    +0.000 A 
ATOM     25  C   UNL     1       4.266   6.543   6.664  0.00  0.00    +0.000 A 
ATOM     26  C   UNL     1       3.401   5.669   6.001  0.00  0.00    +0.000 A 
ATOM     27  C   UNL     1       3.209   5.315   4.721  0.00  0.00    +0.000 A 
BRANCH  19  31
ATOM     28  C   UNL     1       0.957   1.965   1.430  0.00  0.00    +0.000 A 
ATOM     29  C   UNL     1       0.021   2.763   2.068  0.00  0.00    +0.000 A 
ATOM     30  C   UNL     1       0.583   3.693   2.973  0.00  0.00    +0.000 A 
ATOM     31  C   UNL     1       1.805   3.613   3.468  0.00  0.00    +0.000 A 
ATOM     32  C   UNL     1       2.662   2.756   2.835  0.00  0.00    +0.000 A 
ATOM     33  C   UNL     1       2.215   1.908   1.851  0.00  0.00    +0.000 A 
BRANCH  28  35
ATOM     34  C   UNL     1       1.087   0.004  -0.049  0.00  0.00    +0.000 C 
ATOM     35  O   UNL     1       0.614   1.317   0.214  0.00  0.00    +0.000 OA
ENDBRANCH  28  35
ENDBRANCH  19  31
ENDBRANCH   1  27
TORSDOF 4
