REMARK  Name = 
REMARK  5 active torsions:
REMARK  status: ('A' for Active; 'I' for Inactive)
REMARK    1  A    between atoms: C_1  and  C_2
REMARK    2  A    between atoms: C_6  and  C_7
REMARK    3  A    between atoms: N_12  and  C_13
REMARK    4  A    between atoms: C_24  and  C_25
REMARK    5  A    between atoms: C_28  and  C_29
REMARK                            x       y       z     vdW  Elec       q    Type
REMARK                         _______ _______ _______ _____ _____    ______ ____
ROOT
ATOM      1  C   UNL     1       1.053   0.062   0.057  0.00  0.00    +0.000 C 
ATOM      2  C   UNL     1       0.547  -0.757   1.233  0.00  0.00    +0.000 A 
ATOM      3  C   UNL     1       0.797  -2.092   1.194  0.00  0.00    +0.000 A 
ATOM      4  C   UNL     1       0.546  -2.893   2.254  0.00  0.00    +0.000 A 
ATOM      5  C   UNL     1       0.006  -2.349   3.421  0.00  0.00    +0.000 A 
ATOM      6  C   UNL     1      -0.358  -2.841   4.616  0.00  0.00    +0.000 A 
ATOM      7  C   UNL     1      -0.816  -1.848   5.351  0.00  0.00    +0.000 A 
ATOM      8  N   UNL     1      -0.767  -0.709   4.676  0.00  0.00    +0.000 NA
ATOM      9  N   UNL     1      -0.265  -0.952   3.466  0.00  0.00    +0.000 N 
ATOM     10  N   UNL     1       0.023  -0.168   2.330  0.00  0.00    +0.000 NA
ENDROOT
BRANCH   6  11
ATOM     11  C   UNL     1      -0.260  -4.295   5.047  0.00  0.00    +0.000 A 
ATOM     12  C   UNL     1      -1.417  -4.991   5.380  0.00  0.00    +0.000 A 
ATOM     13  C   UNL     1      -1.371  -6.396   5.240  0.00  0.00    +0.000 A 
ATOM     14  N   UNL     1      -0.154  -7.006   5.538  0.00  0.00    +0.000 NA
ATOM     15  C   UNL     1       0.944  -6.283   5.460  0.00  0.00    +0.000 A 
ATOM     16  N   UNL     1       2.242  -6.898   5.772  0.00  0.00    +0.000 N 
ATOM     17  N   UNL     1       0.888  -4.937   5.085  0.00  0.00    +0.000 NA
ATOM     18  H   UNL     1       3.096  -6.343   5.713  0.00  0.00    +0.000 HD
BRANCH  16  19
ATOM     19  C   UNL     1       2.310  -8.312   6.167  0.00  0.00    +0.000 A 
ATOM     20  C   UNL     1       2.811  -8.655   7.418  0.00  0.00    +0.000 A 
ATOM     21  C   UNL     1       2.385  -9.891   7.952  0.00  0.00    +0.000 A 
ATOM     22  C   UNL     1       2.194 -10.926   7.038  0.00  0.00    +0.000 A 
ATOM     23  C   UNL     1       1.954 -10.614   5.782  0.00  0.00    +0.000 A 
ATOM     24  C   UNL     1       1.889  -9.277   5.377  0.00  0.00    +0.000 A 
ATOM     25  O   UNL     1       1.760 -11.647   4.827  0.00  0.00    +0.000 OA
ATOM     26  C   UNL     1       1.501 -11.320   3.470  0.00  0.00    +0.000 C 
ATOM     27  C   UNL     1       0.228 -10.494   3.382  0.00  0.00    +0.000 C 
ATOM     28  O   UNL     1       2.257 -12.283   7.452  0.00  0.00    +0.000 OA
ENDBRANCH  16  19
ENDBRANCH   6  11
BRANCH   7  29
ATOM     29  C   UNL     1      -1.328  -1.989   6.775  0.00  0.00    +0.000 A 
ATOM     30  C   UNL     1      -2.639  -1.657   7.098  0.00  0.00    +0.000 A 
ATOM     31  C   UNL     1      -3.184  -2.279   8.243  0.00  0.00    +0.000 A 
ATOM     32  C   UNL     1      -2.306  -2.502   9.302  0.00  0.00    +0.000 A 
ATOM     33  C   UNL     1      -1.018  -2.579   9.040  0.00  0.00    +0.000 A 
ATOM     34  C   UNL     1      -0.545  -2.443   7.731  0.00  0.00    +0.000 A 
BRANCH  32  35
ATOM     35  C   UNL     1      -2.822  -2.654  10.724  0.00  0.00    +0.000 C 
ATOM     36  F   UNL     1      -3.466  -1.546  11.082  0.00  0.00    +0.000 F 
ATOM     37  F   UNL     1      -3.654  -3.690  10.786  0.00  0.00    +0.000 F 
ATOM     38  F   UNL     1      -1.798  -2.857  11.548  0.00  0.00    +0.000 F 
ENDBRANCH  32  35
ENDBRANCH   7  29
TORSDOF 4
