REMARK  Name = 
REMARK  5 active torsions:
REMARK  status: ('A' for Active; 'I' for Inactive)
REMARK    1  A    between atoms: C_1  and  C_2
REMARK    2  A    between atoms: C_6  and  C_7
REMARK    3  A    between atoms: N_12  and  C_13
REMARK    4  A    between atoms: C_24  and  C_25
REMARK    5  A    between atoms: C_28  and  C_29
REMARK                            x       y       z     vdW  Elec       q    Type
REMARK                         _______ _______ _______ _____ _____    ______ ____
ROOT
ATOM      1  C   UNL     1       0.981   0.036   0.091  0.00  0.00    +0.000 C 
ATOM      2  C   UNL     1       0.474  -0.420  -1.267  0.00  0.00    +0.000 A 
ATOM      3  C   UNL     1       0.586  -1.738  -1.581  0.00  0.00    +0.000 A 
ATOM      4  C   UNL     1       0.238  -2.210  -2.799  0.00  0.00    +0.000 A 
ATOM      5  C   UNL     1      -0.240  -1.330  -3.772  0.00  0.00    +0.000 A 
ATOM      6  C   UNL     1      -0.656  -1.457  -5.042  0.00  0.00    +0.000 A 
ATOM      7  C   UNL     1      -1.003  -0.266  -5.486  0.00  0.00    +0.000 A 
ATOM      8  N   UNL     1      -0.827   0.649  -4.545  0.00  0.00    +0.000 NA
ATOM      9  N   UNL     1      -0.354   0.052  -3.452  0.00  0.00    +0.000 N 
ATOM     10  N   UNL     1       0.020   0.483  -2.163  0.00  0.00    +0.000 NA
ENDROOT
BRANCH   6  11
ATOM     11  C   UNL     1      -0.716  -2.753  -5.833  0.00  0.00    +0.000 A 
ATOM     12  C   UNL     1       0.019  -2.865  -7.008  0.00  0.00    +0.000 A 
ATOM     13  C   UNL     1       0.340  -4.174  -7.431  0.00  0.00    +0.000 A 
ATOM     14  N   UNL     1      -0.619  -5.154  -7.186  0.00  0.00    +0.000 NA
ATOM     15  C   UNL     1      -1.488  -4.951  -6.219  0.00  0.00    +0.000 A 
ATOM     16  N   UNL     1      -2.515  -5.965  -5.939  0.00  0.00    +0.000 N 
ATOM     17  N   UNL     1      -1.446  -3.780  -5.454  0.00  0.00    +0.000 NA
ATOM     18  H   UNL     1      -3.192  -5.813  -5.191  0.00  0.00    +0.000 HD
BRANCH  16  19
ATOM     19  C   UNL     1      -2.567  -7.198  -6.738  0.00  0.00    +0.000 A 
ATOM     20  C   UNL     1      -3.719  -7.492  -7.460  0.00  0.00    +0.000 A 
ATOM     21  C   UNL     1      -3.567  -8.362  -8.563  0.00  0.00    +0.000 A 
ATOM     22  C   UNL     1      -2.627  -9.381  -8.421  0.00  0.00    +0.000 A 
ATOM     23  C   UNL     1      -1.653  -9.216  -7.552  0.00  0.00    +0.000 A 
ATOM     24  C   UNL     1      -1.562  -8.044  -6.793  0.00  0.00    +0.000 A 
ATOM     25  O   UNL     1      -0.683 -10.239  -7.383  0.00  0.00    +0.000 OA
ATOM     26  C   UNL     1       0.372 -10.070  -6.447  0.00  0.00    +0.000 C 
ATOM     27  C   UNL     1       1.191  -8.846  -6.824  0.00  0.00    +0.000 C 
ATOM     28  O   UNL     1      -2.719 -10.569  -9.195  0.00  0.00    +0.000 OA
ENDBRANCH  16  19
ENDBRANCH   6  11
BRANCH   7  29
ATOM     29  C   UNL     1      -1.531   0.018  -6.883  0.00  0.00    +0.000 A 
ATOM     30  C   UNL     1      -0.893   0.926  -7.721  0.00  0.00    +0.000 A 
ATOM     31  C   UNL     1      -1.154   0.800  -9.104  0.00  0.00    +0.000 A 
ATOM     32  C   UNL     1      -2.444   0.407  -9.456  0.00  0.00    +0.000 A 
ATOM     33  C   UNL     1      -3.160  -0.254  -8.570  0.00  0.00    +0.000 A 
ATOM     34  C   UNL     1      -2.636  -0.557  -7.309  0.00  0.00    +0.000 A 
BRANCH  32  35
ATOM     35  C   UNL     1      -3.011   0.734 -10.828  0.00  0.00    +0.000 C 
ATOM     36  F   UNL     1      -3.030   2.053 -10.997  0.00  0.00    +0.000 F 
ATOM     37  F   UNL     1      -2.250   0.177 -11.766  0.00  0.00    +0.000 F 
ATOM     38  F   UNL     1      -4.249   0.257 -10.921  0.00  0.00    +0.000 F 
ENDBRANCH  32  35
ENDBRANCH   7  29
TORSDOF 4
