
 OpenBabel03132514253D

 56 61  0  0  0  0  0  0  0  0999 V2000
    0.9806    0.0360    0.0913 C   0  0  0  0  0  0  0  0  0  0  0  0
    0.4740   -0.4205   -1.2671 C   0  0  0  0  0  0  0  0  0  0  0  0
    0.5859   -1.7382   -1.5807 C   0  0  0  0  0  0  0  0  0  0  0  0
    0.2378   -2.2101   -2.7986 C   0  0  0  0  0  0  0  0  0  0  0  0
   -0.2398   -1.3303   -3.7718 C   0  0  0  0  0  0  0  0  0  0  0  0
   -0.6558   -1.4570   -5.0423 C   0  0  0  0  0  0  0  0  0  0  0  0
   -0.7161   -2.7535   -5.8333 C   0  0  0  0  0  0  0  0  0  0  0  0
    0.0194   -2.8646   -7.0083 C   0  0  0  0  0  0  0  0  0  0  0  0
    0.3403   -4.1739   -7.4309 C   0  0  0  0  0  0  0  0  0  0  0  0
   -0.6194   -5.1545   -7.1862 N   0  0  0  0  0  0  0  0  0  0  0  0
   -1.4885   -4.9508   -6.2189 C   0  0  0  0  0  0  0  0  0  0  0  0
   -2.5154   -5.9648   -5.9394 N   0  0  0  0  0  0  0  0  0  0  0  0
   -2.5675   -7.1977   -6.7383 C   0  0  0  0  0  0  0  0  0  0  0  0
   -3.7189   -7.4922   -7.4604 C   0  0  0  0  0  0  0  0  0  0  0  0
   -3.5673   -8.3620   -8.5633 C   0  0  0  0  0  0  0  0  0  0  0  0
   -2.6275   -9.3814   -8.4213 C   0  0  0  0  0  0  0  0  0  0  0  0
   -1.6529   -9.2162   -7.5522 C   0  0  0  0  0  0  0  0  0  0  0  0
   -1.5617   -8.0442   -6.7933 C   0  0  0  0  0  0  0  0  0  0  0  0
   -0.6828  -10.2393   -7.3828 O   0  0  0  0  0  0  0  0  0  0  0  0
    0.3721  -10.0696   -6.4475 C   0  0  0  0  0  0  0  0  0  0  0  0
    1.1910   -8.8457   -6.8239 C   0  0  0  0  0  0  0  0  0  0  0  0
   -2.7192  -10.5686   -9.1949 O   0  0  0  0  0  0  0  0  0  0  0  0
   -1.4462   -3.7802   -5.4536 N   0  0  0  0  0  0  0  0  0  0  0  0
   -1.0028   -0.2661   -5.4863 C   0  0  0  0  0  0  0  0  0  0  0  0
   -1.5313    0.0176   -6.8829 C   0  0  0  0  0  0  0  0  0  0  0  0
   -0.8935    0.9258   -7.7210 C   0  0  0  0  0  0  0  0  0  0  0  0
   -1.1542    0.7997   -9.1037 C   0  0  0  0  0  0  0  0  0  0  0  0
   -2.4444    0.4072   -9.4557 C   0  0  0  0  0  0  0  0  0  0  0  0
   -3.0109    0.7339  -10.8278 C   0  0  0  0  0  0  0  0  0  0  0  0
   -3.0299    2.0530  -10.9970 F   0  0  0  0  0  0  0  0  0  0  0  0
   -2.2496    0.1775  -11.7657 F   0  0  0  0  0  0  0  0  0  0  0  0
   -4.2490    0.2571  -10.9212 F   0  0  0  0  0  0  0  0  0  0  0  0
   -3.1600   -0.2535   -8.5703 C   0  0  0  0  0  0  0  0  0  0  0  0
   -2.6357   -0.5568   -7.3090 C   0  0  0  0  0  0  0  0  0  0  0  0
   -0.8265    0.6495   -4.5450 N   0  0  0  0  0  0  0  0  0  0  0  0
   -0.3538    0.0518   -3.4524 N   0  0  0  0  0  0  0  0  0  0  0  0
    0.0204    0.4834   -2.1625 N   0  0  0  0  0  0  0  0  0  0  0  0
    0.6240   -0.6314    0.8477 H   0  0  0  0  0  0  0  0  0  0  0  0
    0.6240    1.0248    0.2910 H   0  0  0  0  0  0  0  0  0  0  0  0
    2.0506    0.0360    0.0913 H   0  0  0  0  0  0  0  0  0  0  0  0
    0.9591   -2.4194   -0.8447 H   0  0  0  0  0  0  0  0  0  0  0  0
    0.3279   -3.2539   -3.0159 H   0  0  0  0  0  0  0  0  0  0  0  0
    0.3263   -2.0030   -7.5636 H   0  0  0  0  0  0  0  0  0  0  0  0
    1.2688   -4.4002   -7.9122 H   0  0  0  0  0  0  0  0  0  0  0  0
   -3.1918   -5.8130   -5.1912 H   0  0  0  0  0  0  0  0  0  0  0  0
   -4.6704   -7.0813   -7.1945 H   0  0  0  0  0  0  0  0  0  0  0  0
   -4.1422   -8.2447   -9.4581 H   0  0  0  0  0  0  0  0  0  0  0  0
   -0.6634   -7.8339   -6.2513 H   0  0  0  0  0  0  0  0  0  0  0  0
   -0.0376   -9.9372   -5.4680 H   0  0  0  0  0  0  0  0  0  0  0  0
    1.0001  -10.9359   -6.4573 H   0  0  0  0  0  0  0  0  0  0  0  0
    1.9859   -8.7179   -6.1191 H   0  0  0  0  0  0  0  0  0  0  0  0
    1.6007   -8.9782   -7.8035 H   0  0  0  0  0  0  0  0  0  0  0  0
   -0.2391    1.6810   -7.3383 H   0  0  0  0  0  0  0  0  0  0  0  0
   -0.4027    0.9948   -9.8401 H   0  0  0  0  0  0  0  0  0  0  0  0
   -4.1541   -0.5621   -8.8180 H   0  0  0  0  0  0  0  0  0  0  0  0
   -3.1389   -1.2643   -6.6835 H   0  0  0  0  0  0  0  0  0  0  0  0
  1  2  1  0  0  0  0
  1 38  1  0  0  0  0
  1 39  1  0  0  0  0
  1 40  1  0  0  0  0
  2  3  1  0  0  0  0
  2 37  2  0  0  0  0
  3  4  2  0  0  0  0
  3 41  1  0  0  0  0
  4  5  1  0  0  0  0
  4 42  1  0  0  0  0
  5  6  2  0  0  0  0
  5 36  1  0  0  0  0
  6  7  1  0  0  0  0
  6 24  1  0  0  0  0
  7  8  1  0  0  0  0
  7 23  2  0  0  0  0
  8  9  2  0  0  0  0
  8 43  1  0  0  0  0
  9 10  1  0  0  0  0
  9 44  1  0  0  0  0
 10 11  2  0  0  0  0
 11 12  1  0  0  0  0
 11 23  1  0  0  0  0
 12 13  1  0  0  0  0
 12 45  1  0  0  0  0
 13 14  1  0  0  0  0
 13 18  2  0  0  0  0
 14 15  2  0  0  0  0
 14 46  1  0  0  0  0
 15 16  1  0  0  0  0
 15 47  1  0  0  0  0
 16 17  2  0  0  0  0
 16 22  1  0  0  0  0
 17 18  1  0  0  0  0
 17 19  1  0  0  0  0
 18 48  1  0  0  0  0
 19 20  1  0  0  0  0
 20 21  1  0  0  0  0
 20 49  1  0  0  0  0
 20 50  1  0  0  0  0
 21 22  1  0  0  0  0
 21 51  1  0  0  0  0
 21 52  1  0  0  0  0
 24 25  1  0  0  0  0
 24 35  2  0  0  0  0
 25 26  1  0  0  0  0
 25 34  2  0  0  0  0
 26 27  2  0  0  0  0
 26 53  1  0  0  0  0
 27 28  1  0  0  0  0
 27 54  1  0  0  0  0
 28 29  1  0  0  0  0
 28 33  2  0  0  0  0
 29 30  1  0  0  0  0
 29 31  1  0  0  0  0
 29 32  1  0  0  0  0
 33 34  1  0  0  0  0
 33 55  1  0  0  0  0
 34 56  1  0  0  0  0
 35 36  1  0  0  0  0
 36 37  1  0  0  0  0
M  END
