
 OpenBabel03132512093D

 56 61  0  0  0  0  0  0  0  0999 V2000
    1.0533    0.0622    0.0573 C   0  0  0  0  0  0  0  0  0  0  0  0
    0.5467   -0.7573    1.2330 C   0  0  0  0  0  0  0  0  0  0  0  0
    0.7972   -2.0925    1.1939 C   0  0  0  0  0  0  0  0  0  0  0  0
    0.5464   -2.8930    2.2538 C   0  0  0  0  0  0  0  0  0  0  0  0
    0.0058   -2.3488    3.4205 C   0  0  0  0  0  0  0  0  0  0  0  0
   -0.3584   -2.8405    4.6157 C   0  0  0  0  0  0  0  0  0  0  0  0
   -0.2598   -4.2948    5.0467 C   0  0  0  0  0  0  0  0  0  0  0  0
   -1.4169   -4.9906    5.3798 C   0  0  0  0  0  0  0  0  0  0  0  0
   -1.3708   -6.3957    5.2405 C   0  0  0  0  0  0  0  0  0  0  0  0
   -0.1537   -7.0063    5.5378 N   0  0  0  0  0  0  0  0  0  0  0  0
    0.9435   -6.2834    5.4601 C   0  0  0  0  0  0  0  0  0  0  0  0
    2.2420   -6.8981    5.7716 N   0  0  0  0  0  0  0  0  0  0  0  0
    2.3098   -8.3122    6.1671 C   0  0  0  0  0  0  0  0  0  0  0  0
    2.8114   -8.6549    7.4180 C   0  0  0  0  0  0  0  0  0  0  0  0
    2.3849   -9.8912    7.9523 C   0  0  0  0  0  0  0  0  0  0  0  0
    2.1941  -10.9260    7.0383 C   0  0  0  0  0  0  0  0  0  0  0  0
    1.9544  -10.6142    5.7822 C   0  0  0  0  0  0  0  0  0  0  0  0
    1.8892   -9.2765    5.3768 C   0  0  0  0  0  0  0  0  0  0  0  0
    1.7598  -11.6471    4.8275 O   0  0  0  0  0  0  0  0  0  0  0  0
    1.5007  -11.3199    3.4703 C   0  0  0  0  0  0  0  0  0  0  0  0
    0.2277  -10.4939    3.3823 C   0  0  0  0  0  0  0  0  0  0  0  0
    2.2568  -12.2830    7.4520 O   0  0  0  0  0  0  0  0  0  0  0  0
    0.8882   -4.9366    5.0845 N   0  0  0  0  0  0  0  0  0  0  0  0
   -0.8159   -1.8478    5.3512 C   0  0  0  0  0  0  0  0  0  0  0  0
   -1.3279   -1.9892    6.7754 C   0  0  0  0  0  0  0  0  0  0  0  0
   -2.6392   -1.6572    7.0980 C   0  0  0  0  0  0  0  0  0  0  0  0
   -3.1844   -2.2791    8.2434 C   0  0  0  0  0  0  0  0  0  0  0  0
   -2.3059   -2.5022    9.3022 C   0  0  0  0  0  0  0  0  0  0  0  0
   -2.8220   -2.6535   10.7238 C   0  0  0  0  0  0  0  0  0  0  0  0
   -3.4661   -1.5463   11.0819 F   0  0  0  0  0  0  0  0  0  0  0  0
   -3.6535   -3.6898   10.7857 F   0  0  0  0  0  0  0  0  0  0  0  0
   -1.7981   -2.8569   11.5479 F   0  0  0  0  0  0  0  0  0  0  0  0
   -1.0183   -2.5786    9.0404 C   0  0  0  0  0  0  0  0  0  0  0  0
   -0.5450   -2.4429    7.7306 C   0  0  0  0  0  0  0  0  0  0  0  0
   -0.7672   -0.7091    4.6757 N   0  0  0  0  0  0  0  0  0  0  0  0
   -0.2648   -0.9523    3.4661 N   0  0  0  0  0  0  0  0  0  0  0  0
    0.0232   -0.1677    2.3297 N   0  0  0  0  0  0  0  0  0  0  0  0
    0.6967    1.0674    0.1431 H   0  0  0  0  0  0  0  0  0  0  0  0
    0.6967   -0.3661   -0.8561 H   0  0  0  0  0  0  0  0  0  0  0  0
    2.1233    0.0622    0.0573 H   0  0  0  0  0  0  0  0  0  0  0  0
    1.2033   -2.5209    0.3015 H   0  0  0  0  0  0  0  0  0  0  0  0
    0.7614   -3.9398    2.1990 H   0  0  0  0  0  0  0  0  0  0  0  0
   -2.2965   -4.4877    5.7238 H   0  0  0  0  0  0  0  0  0  0  0  0
   -2.2232   -6.9599    4.9242 H   0  0  0  0  0  0  0  0  0  0  0  0
    3.0960   -6.3433    5.7133 H   0  0  0  0  0  0  0  0  0  0  0  0
    3.4855   -8.0152    7.9485 H   0  0  0  0  0  0  0  0  0  0  0  0
    2.2176  -10.0257    9.0005 H   0  0  0  0  0  0  0  0  0  0  0  0
    1.4927   -9.0350    4.4128 H   0  0  0  0  0  0  0  0  0  0  0  0
    2.3201  -10.7553    3.0768 H   0  0  0  0  0  0  0  0  0  0  0  0
    1.3822  -12.2193    2.9029 H   0  0  0  0  0  0  0  0  0  0  0  0
    0.0325  -10.2473    2.3596 H   0  0  0  0  0  0  0  0  0  0  0  0
   -0.5916  -11.0585    3.7757 H   0  0  0  0  0  0  0  0  0  0  0  0
   -3.2060   -0.9665    6.5092 H   0  0  0  0  0  0  0  0  0  0  0  0
   -4.2147   -2.5632    8.2952 H   0  0  0  0  0  0  0  0  0  0  0  0
   -0.3254   -2.7464    9.8383 H   0  0  0  0  0  0  0  0  0  0  0  0
    0.4655   -2.7113    7.5031 H   0  0  0  0  0  0  0  0  0  0  0  0
  1  2  1  0  0  0  0
  1 38  1  0  0  0  0
  1 39  1  0  0  0  0
  1 40  1  0  0  0  0
  2  3  1  0  0  0  0
  2 37  2  0  0  0  0
  3  4  2  0  0  0  0
  3 41  1  0  0  0  0
  4  5  1  0  0  0  0
  4 42  1  0  0  0  0
  5  6  2  0  0  0  0
  5 36  1  0  0  0  0
  6  7  1  0  0  0  0
  6 24  1  0  0  0  0
  7  8  1  0  0  0  0
  7 23  2  0  0  0  0
  8  9  2  0  0  0  0
  8 43  1  0  0  0  0
  9 10  1  0  0  0  0
  9 44  1  0  0  0  0
 10 11  2  0  0  0  0
 11 12  1  0  0  0  0
 11 23  1  0  0  0  0
 12 13  1  0  0  0  0
 12 45  1  0  0  0  0
 13 14  1  0  0  0  0
 13 18  2  0  0  0  0
 14 15  2  0  0  0  0
 14 46  1  0  0  0  0
 15 16  1  0  0  0  0
 15 47  1  0  0  0  0
 16 17  2  0  0  0  0
 16 22  1  0  0  0  0
 17 18  1  0  0  0  0
 17 19  1  0  0  0  0
 18 48  1  0  0  0  0
 19 20  1  0  0  0  0
 20 21  1  0  0  0  0
 20 49  1  0  0  0  0
 20 50  1  0  0  0  0
 21 22  1  0  0  0  0
 21 51  1  0  0  0  0
 21 52  1  0  0  0  0
 24 25  1  0  0  0  0
 24 35  2  0  0  0  0
 25 26  1  0  0  0  0
 25 34  2  0  0  0  0
 26 27  2  0  0  0  0
 26 53  1  0  0  0  0
 27 28  1  0  0  0  0
 27 54  1  0  0  0  0
 28 29  1  0  0  0  0
 28 33  2  0  0  0  0
 29 30  1  0  0  0  0
 29 31  1  0  0  0  0
 29 32  1  0  0  0  0
 33 34  1  0  0  0  0
 33 55  1  0  0  0  0
 34 56  1  0  0  0  0
 35 36  1  0  0  0  0
 36 37  1  0  0  0  0
M  END
