REMARK  Name = 
REMARK  10 active torsions:
REMARK  status: ('A' for Active; 'I' for Inactive)
REMARK    1  A    between atoms: C_1  and  O_2
REMARK    2  A    between atoms: O_2  and  C_3
REMARK    3  A    between atoms: N_8  and  C_9
REMARK    4  A    between atoms: C_11  and  O_12
REMARK    5  A    between atoms: O_12  and  C_13
REMARK    6  A    between atoms: C_13  and  C_14
REMARK    7  A    between atoms: C_19  and  C_20
REMARK    8  A    between atoms: C_24  and  C_25
REMARK    9  A    between atoms: C_31  and  O_32
REMARK   10  A    between atoms: O_32  and  C_33
REMARK                            x       y       z     vdW  Elec       q    Type
REMARK                         _______ _______ _______ _____ _____    ______ ____
ROOT
ATOM      1  C   UNL     1       2.745  -3.523  -6.221  0.00  0.00    +0.000 A 
ATOM      2  C   UNL     1       3.856  -4.247  -5.944  0.00  0.00    +0.000 A 
ATOM      3  C   UNL     1       4.676  -4.095  -7.012  0.00  0.00    +0.000 A 
ATOM      4  C   UNL     1       4.068  -3.313  -7.862  0.00  0.00    +0.000 A 
ATOM      5  S   UNL     1       2.921  -2.970  -7.390  0.00  0.00    +0.000 S 
ENDROOT
BRANCH   1  11
ATOM      6  C   UNL     1       0.924  -1.969  -1.603  0.00  0.00    +0.000 A 
ATOM      7  C   UNL     1      -0.109  -2.482  -2.397  0.00  0.00    +0.000 A 
ATOM      8  C   UNL     1       0.204  -2.945  -3.684  0.00  0.00    +0.000 A 
ATOM      9  N   UNL     1      -0.503  -3.482  -4.690  0.00  0.00    +0.000 NA
ATOM     10  C   UNL     1       0.324  -3.734  -5.687  0.00  0.00    +0.000 A 
ATOM     11  N   UNL     1       1.560  -3.381  -5.362  0.00  0.00    +0.000 N 
ATOM     12  C   UNL     1       1.552  -2.878  -4.132  0.00  0.00    +0.000 A 
ATOM     13  C   UNL     1       2.510  -2.366  -3.309  0.00  0.00    +0.000 A 
ATOM     14  C   UNL     1       2.201  -1.927  -2.080  0.00  0.00    +0.000 A 
BRANCH   6  16
ATOM     15  C   UNL     1       1.055  -0.059  -0.059  0.00  0.00    +0.000 C 
ATOM     16  O   UNL     1       0.581  -1.363  -0.366  0.00  0.00    +0.000 OA
ENDBRANCH   6  16
BRANCH  14  17
ATOM     17  O   UNL     1       3.230  -1.403  -1.254  0.00  0.00    +0.000 OA
ATOM     18  C   UNL     1       2.924  -0.933   0.050  0.00  0.00    +0.000 C 
ENDBRANCH  14  17
ENDBRANCH   1  11
BRANCH   4  19
ATOM     19  C   UNL     1       4.628  -2.876  -9.205  0.00  0.00    +0.000 C 
ATOM     20  N   UNL     1       5.956  -3.338  -9.633  0.00  0.00    +0.000 N 
ATOM     21  O   UNL     1       3.949  -2.110  -9.958  0.00  0.00    +0.000 OA
ATOM     22  H   UNL     1       6.333  -3.044 -10.535  0.00  0.00    +0.000 HD
ATOM     23  H   UNL     1       6.502  -3.952  -9.029  0.00  0.00    +0.000 HD
ENDBRANCH   4  19
BRANCH   3  24
ATOM     24  O   UNL     1       5.961  -4.677  -7.176  0.00  0.00    +0.000 OA
BRANCH  24  25
ATOM     25  C   UNL     1       6.497  -5.511  -6.160  0.00  0.00    +0.000 C 
BRANCH  25  26
ATOM     26  C   UNL     1       6.614  -4.722  -4.866  0.00  0.00    +0.000 A 
ATOM     27  C   UNL     1       5.763  -3.595  -4.689  0.00  0.00    +0.000 A 
ATOM     28  C   UNL     1       6.006  -2.709  -3.627  0.00  0.00    +0.000 A 
ATOM     29  C   UNL     1       6.811  -3.052  -2.664  0.00  0.00    +0.000 A 
ATOM     30  C   UNL     1       7.430  -4.309  -2.680  0.00  0.00    +0.000 A 
ATOM     31  C   UNL     1       7.434  -5.072  -3.873  0.00  0.00    +0.000 A 
BRANCH  31  32
ATOM     32  C   UNL     1       8.359  -6.269  -4.021  0.00  0.00    +0.000 C 
ATOM     33  F   UNL     1       9.622  -5.872  -3.896  0.00  0.00    +0.000 F 
ATOM     34  F   UNL     1       8.080  -7.163  -3.076  0.00  0.00    +0.000 F 
ATOM     35  F   UNL     1       8.183  -6.820  -5.219  0.00  0.00    +0.000 F 
ENDBRANCH  31  32
ENDBRANCH  25  26
ENDBRANCH  24  25
ENDBRANCH   3  24
TORSDOF 8
