
 OpenBabel03132512093D

 51 54  0  0  0  0  0  0  0  0999 V2000
    1.0547   -0.0594   -0.0590 C   0  0  0  0  0  0  0  0  0  0  0  0
    0.5813   -1.3625   -0.3661 O   0  0  0  0  0  0  0  0  0  0  0  0
    0.9244   -1.9692   -1.6033 C   0  0  0  0  0  0  0  0  0  0  0  0
   -0.1088   -2.4816   -2.3972 C   0  0  0  0  0  0  0  0  0  0  0  0
    0.2037   -2.9454   -3.6844 C   0  0  0  0  0  0  0  0  0  0  0  0
   -0.5026   -3.4824   -4.6901 N   0  0  0  0  0  0  0  0  0  0  0  0
    0.3236   -3.7336   -5.6866 C   0  0  0  0  0  0  0  0  0  0  0  0
    1.5604   -3.3807   -5.3621 N   0  0  0  0  0  0  0  0  0  0  0  0
    2.7447   -3.5227   -6.2213 C   0  0  0  0  0  0  0  0  0  0  0  0
    3.8561   -4.2469   -5.9439 C   0  0  0  0  0  0  0  0  0  0  0  0
    4.6762   -4.0946   -7.0120 C   0  0  0  0  0  0  0  0  0  0  0  0
    5.9606   -4.6774   -7.1760 O   0  0  0  0  0  0  0  0  0  0  0  0
    6.4969   -5.5115   -6.1596 C   0  0  0  0  0  0  0  0  0  0  0  0
    6.6143   -4.7220   -4.8659 C   0  0  0  0  0  0  0  0  0  0  0  0
    5.7635   -3.5955   -4.6890 C   0  0  0  0  0  0  0  0  0  0  0  0
    6.0056   -2.7094   -3.6266 C   0  0  0  0  0  0  0  0  0  0  0  0
    6.8109   -3.0517   -2.6644 C   0  0  0  0  0  0  0  0  0  0  0  0
    7.4301   -4.3086   -2.6803 C   0  0  0  0  0  0  0  0  0  0  0  0
    7.4344   -5.0715   -3.8734 C   0  0  0  0  0  0  0  0  0  0  0  0
    8.3587   -6.2691   -4.0208 C   0  0  0  0  0  0  0  0  0  0  0  0
    9.6220   -5.8722   -3.8963 F   0  0  0  0  0  0  0  0  0  0  0  0
    8.0798   -7.1632   -3.0765 F   0  0  0  0  0  0  0  0  0  0  0  0
    8.1830   -6.8199   -5.2186 F   0  0  0  0  0  0  0  0  0  0  0  0
    4.0676   -3.3133   -7.8620 C   0  0  0  0  0  0  0  0  0  0  0  0
    4.6283   -2.8756   -9.2053 C   0  0  0  0  0  0  0  0  0  0  0  0
    5.9564   -3.3378   -9.6333 N   0  0  0  0  0  0  0  0  0  0  0  0
    3.9487   -2.1099   -9.9584 O   0  0  0  0  0  0  0  0  0  0  0  0
    2.9215   -2.9701   -7.3903 S   0  0  0  0  0  0  0  0  0  0  0  0
    1.5522   -2.8776   -4.1321 C   0  0  0  0  0  0  0  0  0  0  0  0
    2.5096   -2.3664   -3.3095 C   0  0  0  0  0  0  0  0  0  0  0  0
    2.2006   -1.9268   -2.0804 C   0  0  0  0  0  0  0  0  0  0  0  0
    3.2302   -1.4032   -1.2545 O   0  0  0  0  0  0  0  0  0  0  0  0
    2.9239   -0.9327    0.0498 C   0  0  0  0  0  0  0  0  0  0  0  0
    0.6980    0.2311    0.9071 H   0  0  0  0  0  0  0  0  0  0  0  0
    0.6980    0.6319   -0.7936 H   0  0  0  0  0  0  0  0  0  0  0  0
    2.1247   -0.0594   -0.0590 H   0  0  0  0  0  0  0  0  0  0  0  0
   -1.1135   -2.5189   -2.0310 H   0  0  0  0  0  0  0  0  0  0  0  0
    0.0368   -4.1615   -6.6245 H   0  0  0  0  0  0  0  0  0  0  0  0
    4.0470   -4.8216   -5.0618 H   0  0  0  0  0  0  0  0  0  0  0  0
    5.8498   -6.3501   -6.0081 H   0  0  0  0  0  0  0  0  0  0  0  0
    7.4653   -5.8570   -6.4557 H   0  0  0  0  0  0  0  0  0  0  0  0
    4.9469   -3.4250   -5.3591 H   0  0  0  0  0  0  0  0  0  0  0  0
    5.5273   -1.7524   -3.6087 H   0  0  0  0  0  0  0  0  0  0  0  0
    7.0009   -2.3726   -1.8596 H   0  0  0  0  0  0  0  0  0  0  0  0
    7.8968   -4.6898   -1.7962 H   0  0  0  0  0  0  0  0  0  0  0  0
    6.3326   -3.0441  -10.5348 H   0  0  0  0  0  0  0  0  0  0  0  0
    6.5018   -3.9523   -9.0289 H   0  0  0  0  0  0  0  0  0  0  0  0
    3.5231   -2.3147   -3.6486 H   0  0  0  0  0  0  0  0  0  0  0  0
    2.2147   -0.1343   -0.0165 H   0  0  0  0  0  0  0  0  0  0  0  0
    2.5091   -1.7312    0.6287 H   0  0  0  0  0  0  0  0  0  0  0  0
    3.8173   -0.5780    0.5199 H   0  0  0  0  0  0  0  0  0  0  0  0
  1  2  1  0  0  0  0
  1 34  1  0  0  0  0
  1 35  1  0  0  0  0
  1 36  1  0  0  0  0
  2  3  1  0  0  0  0
  3  4  1  0  0  0  0
  3 31  2  0  0  0  0
  4  5  2  0  0  0  0
  4 37  1  0  0  0  0
  5  6  1  0  0  0  0
  5 29  1  0  0  0  0
  6  7  2  0  0  0  0
  7  8  1  0  0  0  0
  7 38  1  0  0  0  0
  8  9  1  0  0  0  0
  8 29  1  0  0  0  0
  9 10  2  0  0  0  0
  9 28  1  0  0  0  0
 10 11  1  0  0  0  0
 10 39  1  0  0  0  0
 11 12  1  0  0  0  0
 11 24  2  0  0  0  0
 12 13  1  0  0  0  0
 13 14  1  0  0  0  0
 13 40  1  0  0  0  0
 13 41  1  0  0  0  0
 14 15  1  0  0  0  0
 14 19  2  0  0  0  0
 15 16  2  0  0  0  0
 15 42  1  0  0  0  0
 16 17  1  0  0  0  0
 16 43  1  0  0  0  0
 17 18  2  0  0  0  0
 17 44  1  0  0  0  0
 18 19  1  0  0  0  0
 18 45  1  0  0  0  0
 19 20  1  0  0  0  0
 20 21  1  0  0  0  0
 20 22  1  0  0  0  0
 20 23  1  0  0  0  0
 24 25  1  0  0  0  0
 24 28  1  0  0  0  0
 25 26  1  0  0  0  0
 25 27  2  0  0  0  0
 26 46  1  0  0  0  0
 26 47  1  0  0  0  0
 29 30  2  0  0  0  0
 30 31  1  0  0  0  0
 30 48  1  0  0  0  0
 31 32  1  0  0  0  0
 32 33  1  0  0  0  0
 33 49  1  0  0  0  0
 33 50  1  0  0  0  0
 33 51  1  0  0  0  0
M  END
