REMARK  Name = 
REMARK  10 active torsions:
REMARK  status: ('A' for Active; 'I' for Inactive)
REMARK    1  A    between atoms: C_1  and  O_2
REMARK    2  A    between atoms: O_2  and  C_3
REMARK    3  A    between atoms: N_8  and  C_9
REMARK    4  A    between atoms: C_11  and  O_12
REMARK    5  A    between atoms: O_12  and  C_13
REMARK    6  A    between atoms: C_13  and  C_14
REMARK    7  A    between atoms: C_19  and  C_20
REMARK    8  A    between atoms: C_24  and  C_25
REMARK    9  A    between atoms: C_31  and  O_32
REMARK   10  A    between atoms: O_32  and  C_33
REMARK                            x       y       z     vdW  Elec       q    Type
REMARK                         _______ _______ _______ _____ _____    ______ ____
ROOT
ATOM      1  C   UNL     1       2.917   2.440   6.619  0.00  0.00    +0.000 A 
ATOM      2  C   UNL     1       4.067   3.104   6.347  0.00  0.00    +0.000 A 
ATOM      3  C   UNL     1       4.915   2.811   7.363  0.00  0.00    +0.000 A 
ATOM      4  C   UNL     1       4.285   2.011   8.178  0.00  0.00    +0.000 A 
ATOM      5  S   UNL     1       3.099   1.787   7.734  0.00  0.00    +0.000 S 
ENDROOT
BRANCH   1  11
ATOM      6  C   UNL     1       0.797   1.402   1.984  0.00  0.00    +0.000 A 
ATOM      7  C   UNL     1      -0.161   1.920   2.863  0.00  0.00    +0.000 A 
ATOM      8  C   UNL     1       0.238   2.254   4.167  0.00  0.00    +0.000 A 
ATOM      9  N   UNL     1      -0.384   2.756   5.244  0.00  0.00    +0.000 NA
ATOM     10  C   UNL     1       0.498   2.866   6.217  0.00  0.00    +0.000 A 
ATOM     11  N   UNL     1       1.691   2.454   5.808  0.00  0.00    +0.000 N 
ATOM     12  C   UNL     1       1.595   2.054   4.544  0.00  0.00    +0.000 A 
ATOM     13  C   UNL     1       2.477   1.545   3.640  0.00  0.00    +0.000 A 
ATOM     14  C   UNL     1       2.086   1.230   2.396  0.00  0.00    +0.000 A 
BRANCH   6  16
ATOM     15  C   UNL     1       0.928  -0.067   0.016  0.00  0.00    +0.000 C 
ATOM     16  O   UNL     1       0.455   1.120   0.635  0.00  0.00    +0.000 OA
ENDBRANCH   6  16
BRANCH  14  17
ATOM     17  O   UNL     1       3.038   0.703   1.484  0.00  0.00    +0.000 OA
ATOM     18  C   UNL     1       2.644   0.364   0.163  0.00  0.00    +0.000 C 
ENDBRANCH  14  17
ENDBRANCH   1  11
BRANCH   4  19
ATOM     19  C   UNL     1       4.864   1.432   9.459  0.00  0.00    +0.000 C 
ATOM     20  N   UNL     1       6.239   1.765   9.860  0.00  0.00    +0.000 N 
ATOM     21  O   UNL     1       4.160   0.660  10.182  0.00  0.00    +0.000 OA
ATOM     22  H   UNL     1       6.628   1.376  10.719  0.00  0.00    +0.000 HD
ATOM     23  H   UNL     1       6.803   2.385   9.279  0.00  0.00    +0.000 HD
ENDBRANCH   4  19
BRANCH   3  24
ATOM     24  O   UNL     1       6.244   3.288   7.512  0.00  0.00    +0.000 OA
BRANCH  24  25
ATOM     25  C   UNL     1       6.800   4.159   6.537  0.00  0.00    +0.000 C 
BRANCH  25  26
ATOM     26  C   UNL     1       6.808   3.466   5.184  0.00  0.00    +0.000 A 
ATOM     27  C   UNL     1       5.601   3.321   4.445  0.00  0.00    +0.000 A 
ATOM     28  C   UNL     1       5.561   2.432   3.358  0.00  0.00    +0.000 A 
ATOM     29  C   UNL     1       6.668   1.959   2.864  0.00  0.00    +0.000 A 
ATOM     30  C   UNL     1       7.901   2.343   3.407  0.00  0.00    +0.000 A 
ATOM     31  C   UNL     1       7.940   2.983   4.670  0.00  0.00    +0.000 A 
BRANCH  31  32
ATOM     32  C   UNL     1       9.251   3.118   5.427  0.00  0.00    +0.000 C 
ATOM     33  F   UNL     1       9.748   1.909   5.671  0.00  0.00    +0.000 F 
ATOM     34  F   UNL     1      10.117   3.813   4.694  0.00  0.00    +0.000 F 
ATOM     35  F   UNL     1       9.036   3.750   6.577  0.00  0.00    +0.000 F 
ENDBRANCH  31  32
ENDBRANCH  25  26
ENDBRANCH  24  25
ENDBRANCH   3  24
TORSDOF 8
