REMARK  Name = 
REMARK  6 active torsions:
REMARK  status: ('A' for Active; 'I' for Inactive)
REMARK    1  A    between atoms: C_2  and  C_4
REMARK    2  A    between atoms: C_6  and  N_7
REMARK    3  A    between atoms: C_13  and  C_14
REMARK    4  A    between atoms: C_21  and  O_22
REMARK    5  A    between atoms: O_22  and  C_23
REMARK    6  A    between atoms: C_23  and  C_24
REMARK                            x       y       z     vdW  Elec       q    Type
REMARK                         _______ _______ _______ _____ _____    ______ ____
ROOT
ATOM      1  C   UNL     1       1.036  -0.844   2.550  0.00  0.00    +0.000 A 
ATOM      2  S   UNL     1       0.579  -2.166   3.555  0.00  0.00    +0.000 S 
ATOM      3  C   UNL     1       1.858  -1.814   4.650  0.00  0.00    +0.000 A 
ATOM      4  C   UNL     1       2.582  -0.730   4.263  0.00  0.00    +0.000 A 
ATOM      5  C   UNL     1       2.121  -0.173   3.065  0.00  0.00    +0.000 A 
ENDROOT
BRANCH   3   6
ATOM      6  N   UNL     1       2.137  -2.595   5.864  0.00  0.00    +0.000 N 
ATOM      7  C   UNL     1       2.119  -2.092   7.089  0.00  0.00    +0.000 A 
ATOM      8  N   UNL     1       2.565  -2.976   7.958  0.00  0.00    +0.000 NA
ATOM      9  C   UNL     1       2.890  -4.096   7.293  0.00  0.00    +0.000 A 
ATOM     10  C   UNL     1       3.403  -5.344   7.654  0.00  0.00    +0.000 A 
ATOM     11  C   UNL     1       3.616  -6.282   6.704  0.00  0.00    +0.000 A 
ATOM     12  C   UNL     1       3.353  -6.042   5.393  0.00  0.00    +0.000 A 
ATOM     13  C   UNL     1       2.856  -4.857   4.976  0.00  0.00    +0.000 A 
ATOM     14  C   UNL     1       2.608  -3.840   5.922  0.00  0.00    +0.000 A 
BRANCH  12  15
ATOM     15  C   UNL     1       3.627  -7.133   4.370  0.00  0.00    +0.000 C 
ATOM     16  F   UNL     1       2.495  -7.450   3.747  0.00  0.00    +0.000 F 
ATOM     17  F   UNL     1       4.514  -6.695   3.481  0.00  0.00    +0.000 F 
ATOM     18  F   UNL     1       4.110  -8.208   4.986  0.00  0.00    +0.000 F 
ENDBRANCH  12  15
ENDBRANCH   3   6
BRANCH   1  20
ATOM     19  N   UNL     1       1.011  -0.052   0.085  0.00  0.00    +0.000 N 
ATOM     20  C   UNL     1       0.276  -0.442   1.297  0.00  0.00    +0.000 C 
ATOM     21  O   UNL     1      -0.995  -0.442   1.297  0.00  0.00    +0.000 OA
ATOM     22  H   UNL     1       0.501   0.218  -0.756  0.00  0.00    +0.000 HD
ATOM     23  H   UNL     1       2.031  -0.052   0.085  0.00  0.00    +0.000 HD
ENDBRANCH   1  20
BRANCH   5  24
ATOM     24  O   UNL     1       2.709   0.963   2.447  0.00  0.00    +0.000 OA
BRANCH  24  25
ATOM     25  C   UNL     1       2.177   1.464   1.230  0.00  0.00    +0.000 C 
BRANCH  25  26
ATOM     26  C   UNL     1       2.253   0.385   0.162  0.00  0.00    +0.000 A 
ATOM     27  C   UNL     1       1.326   0.422  -0.917  0.00  0.00    +0.000 A 
ATOM     28  C   UNL     1       1.153  -0.719  -1.716  0.00  0.00    +0.000 A 
ATOM     29  C   UNL     1       2.011  -1.694  -1.653  0.00  0.00    +0.000 A 
ATOM     30  C   UNL     1       3.116  -1.603  -0.795  0.00  0.00    +0.000 A 
ATOM     31  C   UNL     1       3.134  -0.615   0.218  0.00  0.00    +0.000 A 
ATOM     32 BR   UNL     1       4.435  -0.714   1.681  0.00  0.00    +0.000 Br
ENDBRANCH  25  26
ENDBRANCH  24  25
ENDBRANCH   5  24
TORSDOF 6
