REMARK  Name = 
REMARK  6 active torsions:
REMARK  status: ('A' for Active; 'I' for Inactive)
REMARK    1  A    between atoms: C_2  and  C_4
REMARK    2  A    between atoms: C_6  and  N_7
REMARK    3  A    between atoms: C_13  and  C_14
REMARK    4  A    between atoms: C_21  and  O_22
REMARK    5  A    between atoms: O_22  and  C_23
REMARK    6  A    between atoms: C_23  and  C_24
REMARK                            x       y       z     vdW  Elec       q    Type
REMARK                         _______ _______ _______ _____ _____    ______ ____
ROOT
ATOM      1  C   UNL     1       1.097  -1.530  -2.171  0.00  0.00    +0.000 A 
ATOM      2  S   UNL     1       0.769  -1.279  -3.843  0.00  0.00    +0.000 S 
ATOM      3  C   UNL     1       2.104  -2.271  -4.284  0.00  0.00    +0.000 A 
ATOM      4  C   UNL     1       2.750  -2.774  -3.198  0.00  0.00    +0.000 A 
ATOM      5  C   UNL     1       2.184  -2.354  -1.990  0.00  0.00    +0.000 A 
ENDROOT
BRANCH   3   6
ATOM      6  N   UNL     1       2.500  -2.542  -5.673  0.00  0.00    +0.000 N 
ATOM      7  C   UNL     1       2.552  -3.743  -6.232  0.00  0.00    +0.000 A 
ATOM      8  N   UNL     1       2.877  -3.645  -7.505  0.00  0.00    +0.000 NA
ATOM      9  C   UNL     1       3.047  -2.346  -7.800  0.00  0.00    +0.000 A 
ATOM     10  C   UNL     1       3.388  -1.633  -8.951  0.00  0.00    +0.000 A 
ATOM     11  C   UNL     1       3.471  -0.285  -8.905  0.00  0.00    +0.000 A 
ATOM     12  C   UNL     1       3.240   0.405  -7.758  0.00  0.00    +0.000 A 
ATOM     13  C   UNL     1       2.905  -0.223  -6.610  0.00  0.00    +0.000 A 
ATOM     14  C   UNL     1       2.798  -1.629  -6.596  0.00  0.00    +0.000 A 
BRANCH  12  15
ATOM     15  C   UNL     1       3.362   1.920  -7.766  0.00  0.00    +0.000 C 
ATOM     16  F   UNL     1       2.197   2.461  -7.421  0.00  0.00    +0.000 F 
ATOM     17  F   UNL     1       4.299   2.294  -6.899  0.00  0.00    +0.000 F 
ATOM     18  F   UNL     1       3.698   2.331  -8.985  0.00  0.00    +0.000 F 
ENDBRANCH  12  15
ENDBRANCH   3   6
BRANCH   1  20
ATOM     19  N   UNL     1       1.073  -0.053  -0.043  0.00  0.00    +0.000 N 
ATOM     20  C   UNL     1       0.338  -0.779  -1.089  0.00  0.00    +0.000 C 
ATOM     21  O   UNL     1      -0.933  -0.779  -1.089  0.00  0.00    +0.000 OA
ATOM     22  H   UNL     1       0.562   0.450   0.682  0.00  0.00    +0.000 HD
ATOM     23  H   UNL     1       2.092  -0.053  -0.043  0.00  0.00    +0.000 HD
ENDBRANCH   1  20
BRANCH   5  24
ATOM     24  O   UNL     1       2.677  -2.737  -0.715  0.00  0.00    +0.000 OA
BRANCH  24  25
ATOM     25  C   UNL     1       2.042  -2.264   0.464  0.00  0.00    +0.000 C 
BRANCH  25  26
ATOM     26  C   UNL     1       2.092  -0.745   0.492  0.00  0.00    +0.000 A 
ATOM     27  C   UNL     1       1.337   0.041   1.407  0.00  0.00    +0.000 A 
ATOM     28  C   UNL     1       1.262   1.431   1.222  0.00  0.00    +0.000 A 
ATOM     29  C   UNL     1       2.080   2.024   0.404  0.00  0.00    +0.000 A 
ATOM     30  C   UNL     1       3.045   1.280  -0.287  0.00  0.00    +0.000 A 
ATOM     31  C   UNL     1       2.933  -0.131  -0.342  0.00  0.00    +0.000 A 
ATOM     32 BR   UNL     1       3.998  -1.165  -1.622  0.00  0.00    +0.000 Br
ENDBRANCH  25  26
ENDBRANCH  24  25
ENDBRANCH   5  24
TORSDOF 6
