
 OpenBabel03132514253D

 43 46  0  0  0  0  0  0  0  0999 V2000
    1.0725   -0.0534   -0.0434 N   0  0  0  0  0  0  0  0  0  0  0  0
    0.3375   -0.7791   -1.0894 C   0  0  0  0  0  0  0  0  0  0  0  0
   -0.9334   -0.7791   -1.0894 O   0  0  0  0  0  0  0  0  0  0  0  0
    1.0975   -1.5295   -2.1709 C   0  0  0  0  0  0  0  0  0  0  0  0
    0.7688   -1.2787   -3.8433 S   0  0  0  0  0  0  0  0  0  0  0  0
    2.1036   -2.2705   -4.2842 C   0  0  0  0  0  0  0  0  0  0  0  0
    2.4996   -2.5425   -5.6735 N   0  0  0  0  0  0  0  0  0  0  0  0
    2.5516   -3.7427   -6.2323 C   0  0  0  0  0  0  0  0  0  0  0  0
    2.8766   -3.6452   -7.5053 N   0  0  0  0  0  0  0  0  0  0  0  0
    3.0471   -2.3464   -7.8003 C   0  0  0  0  0  0  0  0  0  0  0  0
    3.3880   -1.6335   -8.9514 C   0  0  0  0  0  0  0  0  0  0  0  0
    3.4708   -0.2851   -8.9053 C   0  0  0  0  0  0  0  0  0  0  0  0
    3.2403    0.4053   -7.7575 C   0  0  0  0  0  0  0  0  0  0  0  0
    3.3624    1.9203   -7.7658 C   0  0  0  0  0  0  0  0  0  0  0  0
    2.1972    2.4609   -7.4207 F   0  0  0  0  0  0  0  0  0  0  0  0
    4.2988    2.2944   -6.8985 F   0  0  0  0  0  0  0  0  0  0  0  0
    3.6980    2.3314   -8.9853 F   0  0  0  0  0  0  0  0  0  0  0  0
    2.9054   -0.2229   -6.6096 C   0  0  0  0  0  0  0  0  0  0  0  0
    2.7983   -1.6294   -6.5964 C   0  0  0  0  0  0  0  0  0  0  0  0
    2.7502   -2.7738   -3.1983 C   0  0  0  0  0  0  0  0  0  0  0  0
    2.1840   -2.3537   -1.9900 C   0  0  0  0  0  0  0  0  0  0  0  0
    2.6773   -2.7366   -0.7147 O   0  0  0  0  0  0  0  0  0  0  0  0
    2.0417   -2.2637    0.4638 C   0  0  0  0  0  0  0  0  0  0  0  0
    2.0916   -0.7448    0.4917 C   0  0  0  0  0  0  0  0  0  0  0  0
    1.3373    0.0409    1.4071 C   0  0  0  0  0  0  0  0  0  0  0  0
    1.2616    1.4311    1.2225 C   0  0  0  0  0  0  0  0  0  0  0  0
    2.0799    2.0243    0.4039 C   0  0  0  0  0  0  0  0  0  0  0  0
    3.0450    1.2796   -0.2871 C   0  0  0  0  0  0  0  0  0  0  0  0
    2.9331   -0.1311   -0.3420 C   0  0  0  0  0  0  0  0  0  0  0  0
    3.9976   -1.1652   -1.6222 Br  0  0  0  0  0  0  0  0  0  0  0  0
    0.5625    0.4501    0.6824 H   0  0  0  0  0  0  0  0  0  0  0  0
    2.0925   -0.0534   -0.0434 H   0  0  0  0  0  0  0  0  0  0  0  0
    2.3569   -4.6624   -5.7212 H   0  0  0  0  0  0  0  0  0  0  0  0
    3.5831   -2.1525   -9.8666 H   0  0  0  0  0  0  0  0  0  0  0  0
    3.7242    0.2525   -9.7951 H   0  0  0  0  0  0  0  0  0  0  0  0
    2.7229    0.3410   -5.7188 H   0  0  0  0  0  0  0  0  0  0  0  0
    3.6000   -3.4210   -3.2615 H   0  0  0  0  0  0  0  0  0  0  0  0
    1.0219   -2.5873    0.4733 H   0  0  0  0  0  0  0  0  0  0  0  0
    2.5475   -2.6530    1.3226 H   0  0  0  0  0  0  0  0  0  0  0  0
    0.8325   -0.4231    2.2286 H   0  0  0  0  0  0  0  0  0  0  0  0
    0.5306    2.0024    1.7555 H   0  0  0  0  0  0  0  0  0  0  0  0
    2.0159    3.0824    0.2578 H   0  0  0  0  0  0  0  0  0  0  0  0
    3.8617    1.7739   -0.7704 H   0  0  0  0  0  0  0  0  0  0  0  0
  1  2  1  0  0  0  0
  1 31  1  0  0  0  0
  1 32  1  0  0  0  0
  2  3  2  0  0  0  0
  2  4  1  0  0  0  0
  4  5  1  0  0  0  0
  4 21  2  0  0  0  0
  5  6  1  0  0  0  0
  6  7  1  0  0  0  0
  6 20  2  0  0  0  0
  7  8  1  0  0  0  0
  7 19  1  0  0  0  0
  8  9  2  0  0  0  0
  8 33  1  0  0  0  0
  9 10  1  0  0  0  0
 10 11  1  0  0  0  0
 10 19  2  0  0  0  0
 11 12  2  0  0  0  0
 11 34  1  0  0  0  0
 12 13  1  0  0  0  0
 12 35  1  0  0  0  0
 13 14  1  0  0  0  0
 13 18  2  0  0  0  0
 14 15  1  0  0  0  0
 14 16  1  0  0  0  0
 14 17  1  0  0  0  0
 18 19  1  0  0  0  0
 18 36  1  0  0  0  0
 20 21  1  0  0  0  0
 20 37  1  0  0  0  0
 21 22  1  0  0  0  0
 22 23  1  0  0  0  0
 23 24  1  0  0  0  0
 23 38  1  0  0  0  0
 23 39  1  0  0  0  0
 24 25  1  0  0  0  0
 24 29  2  0  0  0  0
 25 26  2  0  0  0  0
 25 40  1  0  0  0  0
 26 27  1  0  0  0  0
 26 41  1  0  0  0  0
 27 28  2  0  0  0  0
 27 42  1  0  0  0  0
 28 29  1  0  0  0  0
 28 43  1  0  0  0  0
 29 30  1  0  0  0  0
M  END
