REMARK  Name = 
REMARK  9 active torsions:
REMARK  status: ('A' for Active; 'I' for Inactive)
REMARK    1  A    between atoms: C_1  and  O_2
REMARK    2  A    between atoms: O_2  and  C_3
REMARK    3  A    between atoms: N_8  and  C_9
REMARK    4  A    between atoms: C_11  and  O_12
REMARK    5  A    between atoms: O_12  and  C_13
REMARK    6  A    between atoms: C_13  and  C_14
REMARK    7  A    between atoms: C_21  and  C_22
REMARK    8  A    between atoms: C_28  and  O_29
REMARK    9  A    between atoms: O_29  and  C_30
REMARK                            x       y       z     vdW  Elec       q    Type
REMARK                         _______ _______ _______ _____ _____    ______ ____
ROOT
ATOM      1  C   UNL     1       2.714  -5.166   4.944  0.00  0.00    +0.000 A 
ATOM      2  C   UNL     1       3.889  -4.712   5.442  0.00  0.00    +0.000 A 
ATOM      3  C   UNL     1       4.671  -5.806   5.609  0.00  0.00    +0.000 A 
ATOM      4  C   UNL     1       3.980  -6.841   5.218  0.00  0.00    +0.000 A 
ATOM      5  S   UNL     1       2.818  -6.461   4.819  0.00  0.00    +0.000 S 
ENDROOT
BRANCH   1  11
ATOM      6  C   UNL     1       0.787  -1.292   2.056  0.00  0.00    +0.000 A 
ATOM      7  C   UNL     1      -0.202  -1.832   2.886  0.00  0.00    +0.000 A 
ATOM      8  C   UNL     1       0.143  -2.895   3.735  0.00  0.00    +0.000 A 
ATOM      9  N   UNL     1      -0.520  -3.637   4.635  0.00  0.00    +0.000 NA
ATOM     10  C   UNL     1       0.321  -4.515   5.146  0.00  0.00    +0.000 A 
ATOM     11  N   UNL     1       1.525  -4.368   4.610  0.00  0.00    +0.000 N 
ATOM     12  C   UNL     1       1.480  -3.382   3.720  0.00  0.00    +0.000 A 
ATOM     13  C   UNL     1       2.394  -2.812   2.887  0.00  0.00    +0.000 A 
ATOM     14  C   UNL     1       2.054  -1.796   2.081  0.00  0.00    +0.000 A 
BRANCH   6  16
ATOM     15  C   UNL     1       0.918   0.057   0.004  0.00  0.00    +0.000 C 
ATOM     16  O   UNL     1       0.444  -0.121   1.331  0.00  0.00    +0.000 OA
ENDBRANCH   6  16
BRANCH  14  17
ATOM     17  O   UNL     1       3.039  -1.229   1.229  0.00  0.00    +0.000 OA
ATOM     18  C   UNL     1       2.700  -0.153   0.368  0.00  0.00    +0.000 C 
ENDBRANCH  14  17
ENDBRANCH   1  11
BRANCH   4  19
ATOM     19  C   UNL     1       4.473  -8.279   5.233  0.00  0.00    +0.000 C 
ATOM     20  N   UNL     1       5.827  -8.587   5.715  0.00  0.00    +0.000 N 
ATOM     21  O   UNL     1       3.714  -9.215   4.829  0.00  0.00    +0.000 OA
ATOM     22  H   UNL     1       6.157  -9.552   5.725  0.00  0.00    +0.000 HD
ATOM     23  H   UNL     1       6.436  -7.836   6.040  0.00  0.00    +0.000 HD
ENDBRANCH   4  19
BRANCH   3  24
ATOM     24  O   UNL     1       5.998  -5.823   6.116  0.00  0.00    +0.000 OA
BRANCH  24  25
ATOM     25  C   UNL     1       6.625  -4.609   6.504  0.00  0.00    +0.000 C 
BRANCH  25  26
ATOM     26  C   UNL     1       6.700  -3.673   5.309  0.00  0.00    +0.000 A 
ATOM     27  C   UNL     1       7.690  -2.658   5.195  0.00  0.00    +0.000 A 
ATOM     28  C   UNL     1       7.516  -1.627   4.258  0.00  0.00    +0.000 A 
ATOM     29  C   UNL     1       6.616  -1.740   3.325  0.00  0.00    +0.000 A 
ATOM     30  C   UNL     1       5.827  -2.896   3.248  0.00  0.00    +0.000 A 
ATOM     31  C   UNL     1       5.783  -3.788   4.347  0.00  0.00    +0.000 A 
ATOM     32 CL   UNL     1       4.525  -5.043   4.442  0.00  0.00    +0.000 Cl
ENDBRANCH  25  26
ENDBRANCH  24  25
ENDBRANCH   3  24
TORSDOF 7
