
 OpenBabel03132512093D

 48 51  0  0  0  0  0  0  0  0999 V2000
    0.9176    0.0566    0.0039 C   0  0  0  0  0  0  0  0  0  0  0  0
    0.4443   -0.1208    1.3309 O   0  0  0  0  0  0  0  0  0  0  0  0
    0.7874   -1.2923    2.0564 C   0  0  0  0  0  0  0  0  0  0  0  0
   -0.2024   -1.8323    2.8865 C   0  0  0  0  0  0  0  0  0  0  0  0
    0.1430   -2.8954    3.7351 C   0  0  0  0  0  0  0  0  0  0  0  0
   -0.5197   -3.6366    4.6352 N   0  0  0  0  0  0  0  0  0  0  0  0
    0.3209   -4.5147    5.1461 C   0  0  0  0  0  0  0  0  0  0  0  0
    1.5252   -4.3684    4.6096 N   0  0  0  0  0  0  0  0  0  0  0  0
    2.7141   -5.1657    4.9438 C   0  0  0  0  0  0  0  0  0  0  0  0
    3.8895   -4.7115    5.4425 C   0  0  0  0  0  0  0  0  0  0  0  0
    4.6712   -5.8059    5.6094 C   0  0  0  0  0  0  0  0  0  0  0  0
    5.9976   -5.8227    6.1160 O   0  0  0  0  0  0  0  0  0  0  0  0
    6.6249   -4.6092    6.5039 C   0  0  0  0  0  0  0  0  0  0  0  0
    6.7001   -3.6732    5.3087 C   0  0  0  0  0  0  0  0  0  0  0  0
    7.6904   -2.6579    5.1952 C   0  0  0  0  0  0  0  0  0  0  0  0
    7.5157   -1.6268    4.2577 C   0  0  0  0  0  0  0  0  0  0  0  0
    6.6160   -1.7405    3.3254 C   0  0  0  0  0  0  0  0  0  0  0  0
    5.8269   -2.8959    3.2480 C   0  0  0  0  0  0  0  0  0  0  0  0
    5.7831   -3.7883    4.3467 C   0  0  0  0  0  0  0  0  0  0  0  0
    4.5246   -5.0435    4.4425 Cl  0  0  0  0  0  0  0  0  0  0  0  0
    3.9799   -6.8415    5.2185 C   0  0  0  0  0  0  0  0  0  0  0  0
    4.4727   -8.2793    5.2332 C   0  0  0  0  0  0  0  0  0  0  0  0
    5.8268   -8.5873    5.7153 N   0  0  0  0  0  0  0  0  0  0  0  0
    3.7141   -9.2153    4.8286 O   0  0  0  0  0  0  0  0  0  0  0  0
    2.8183   -6.4606    4.8191 S   0  0  0  0  0  0  0  0  0  0  0  0
    1.4795   -3.3821    3.7201 C   0  0  0  0  0  0  0  0  0  0  0  0
    2.3940   -2.8123    2.8872 C   0  0  0  0  0  0  0  0  0  0  0  0
    2.0539   -1.7959    2.0806 C   0  0  0  0  0  0  0  0  0  0  0  0
    3.0393   -1.2294    1.2294 O   0  0  0  0  0  0  0  0  0  0  0  0
    2.6995   -0.1528    0.3681 C   0  0  0  0  0  0  0  0  0  0  0  0
    0.5610    0.9894   -0.3803 H   0  0  0  0  0  0  0  0  0  0  0  0
    0.5610   -0.7425   -0.6119 H   0  0  0  0  0  0  0  0  0  0  0  0
    1.9876    0.0566    0.0039 H   0  0  0  0  0  0  0  0  0  0  0  0
   -1.1991   -1.4435    2.8742 H   0  0  0  0  0  0  0  0  0  0  0  0
    0.0675   -5.2423    5.8885 H   0  0  0  0  0  0  0  0  0  0  0  0
    4.1477   -3.6961    5.6600 H   0  0  0  0  0  0  0  0  0  0  0  0
    6.0562   -4.1471    7.2836 H   0  0  0  0  0  0  0  0  0  0  0  0
    7.6132   -4.8159    6.8579 H   0  0  0  0  0  0  0  0  0  0  0  0
    8.5601   -2.6797    5.8182 H   0  0  0  0  0  0  0  0  0  0  0  0
    8.1230   -0.7474    4.3105 H   0  0  0  0  0  0  0  0  0  0  0  0
    6.4782   -0.9509    2.6167 H   0  0  0  0  0  0  0  0  0  0  0  0
    5.2608   -3.1026    2.3639 H   0  0  0  0  0  0  0  0  0  0  0  0
    6.1575   -9.5522    5.7252 H   0  0  0  0  0  0  0  0  0  0  0  0
    6.4357   -7.8361    6.0400 H   0  0  0  0  0  0  0  0  0  0  0  0
    3.3985   -3.1808    2.8760 H   0  0  0  0  0  0  0  0  0  0  0  0
    1.9260   -0.4632   -0.3029 H   0  0  0  0  0  0  0  0  0  0  0  0
    2.3547    0.6754    0.9512 H   0  0  0  0  0  0  0  0  0  0  0  0
    3.5619    0.1407   -0.1932 H   0  0  0  0  0  0  0  0  0  0  0  0
  1  2  1  0  0  0  0
  1 31  1  0  0  0  0
  1 32  1  0  0  0  0
  1 33  1  0  0  0  0
  2  3  1  0  0  0  0
  3  4  1  0  0  0  0
  3 28  2  0  0  0  0
  4  5  2  0  0  0  0
  4 34  1  0  0  0  0
  5  6  1  0  0  0  0
  5 26  1  0  0  0  0
  6  7  2  0  0  0  0
  7  8  1  0  0  0  0
  7 35  1  0  0  0  0
  8  9  1  0  0  0  0
  8 26  1  0  0  0  0
  9 10  2  0  0  0  0
  9 25  1  0  0  0  0
 10 11  1  0  0  0  0
 10 36  1  0  0  0  0
 11 12  1  0  0  0  0
 11 21  2  0  0  0  0
 12 13  1  0  0  0  0
 13 14  1  0  0  0  0
 13 37  1  0  0  0  0
 13 38  1  0  0  0  0
 14 15  1  0  0  0  0
 14 19  2  0  0  0  0
 15 16  2  0  0  0  0
 15 39  1  0  0  0  0
 16 17  1  0  0  0  0
 16 40  1  0  0  0  0
 17 18  2  0  0  0  0
 17 41  1  0  0  0  0
 18 19  1  0  0  0  0
 18 42  1  0  0  0  0
 19 20  1  0  0  0  0
 21 22  1  0  0  0  0
 21 25  1  0  0  0  0
 22 23  1  0  0  0  0
 22 24  2  0  0  0  0
 23 43  1  0  0  0  0
 23 44  1  0  0  0  0
 26 27  2  0  0  0  0
 27 28  1  0  0  0  0
 27 45  1  0  0  0  0
 28 29  1  0  0  0  0
 29 30  1  0  0  0  0
 30 46  1  0  0  0  0
 30 47  1  0  0  0  0
 30 48  1  0  0  0  0
M  END
