
 OpenBabel03132514253D

 43 46  0  0  0  0  0  0  0  0999 V2000
    0.9397   -0.0484   -0.0635 N   0  0  0  0  0  0  0  0  0  0  0  0
    0.2047    0.7554   -1.0507 C   0  0  0  0  0  0  0  0  0  0  0  0
   -1.0662    0.7554   -1.0507 O   0  0  0  0  0  0  0  0  0  0  0  0
    0.9647    1.5865   -2.0716 C   0  0  0  0  0  0  0  0  0  0  0  0
    0.7585    3.2640   -2.4049 S   0  0  0  0  0  0  0  0  0  0  0  0
    2.1303    3.2560   -3.4432 C   0  0  0  0  0  0  0  0  0  0  0  0
    2.6301    4.4436   -4.1508 N   0  0  0  0  0  0  0  0  0  0  0  0
    2.8745    5.5754   -3.5223 C   0  0  0  0  0  0  0  0  0  0  0  0
    3.1706    6.5328   -4.3890 N   0  0  0  0  0  0  0  0  0  0  0  0
    3.1229    6.0237   -5.6192 C   0  0  0  0  0  0  0  0  0  0  0  0
    3.3349    6.5323   -6.9177 C   0  0  0  0  0  0  0  0  0  0  0  0
    3.1988    5.7108   -7.9813 C   0  0  0  0  0  0  0  0  0  0  0  0
    3.4359    6.2606   -9.3784 C   0  0  0  0  0  0  0  0  0  0  0  0
    2.5822    7.2526   -9.6152 F   0  0  0  0  0  0  0  0  0  0  0  0
    4.6819    6.7167   -9.4699 F   0  0  0  0  0  0  0  0  0  0  0  0
    3.2509    5.2936  -10.2727 F   0  0  0  0  0  0  0  0  0  0  0  0
    2.8551    4.4045   -7.8320 C   0  0  0  0  0  0  0  0  0  0  0  0
    2.6445    3.8607   -6.6125 C   0  0  0  0  0  0  0  0  0  0  0  0
    2.7692    4.6533   -5.4698 C   0  0  0  0  0  0  0  0  0  0  0  0
    2.6989    2.0234   -3.5334 C   0  0  0  0  0  0  0  0  0  0  0  0
    2.0414    1.0671   -2.7522 C   0  0  0  0  0  0  0  0  0  0  0  0
    2.4422   -0.2928   -2.6707 O   0  0  0  0  0  0  0  0  0  0  0  0
    1.7173   -1.1987   -1.8520 C   0  0  0  0  0  0  0  0  0  0  0  0
    1.7527   -0.7184   -0.4103 C   0  0  0  0  0  0  0  0  0  0  0  0
    0.6857    0.0782    0.0907 C   0  0  0  0  0  0  0  0  0  0  0  0
    0.8450    0.7544    1.3114 C   0  0  0  0  0  0  0  0  0  0  0  0
    1.8299    0.4454    2.1026 C   0  0  0  0  0  0  0  0  0  0  0  0
    2.7273   -0.5692    1.7440 C   0  0  0  0  0  0  0  0  0  0  0  0
    2.7576   -1.0365    0.4075 C   0  0  0  0  0  0  0  0  0  0  0  0
    4.2518   -2.1328   -0.2304 Br  0  0  0  0  0  0  0  0  0  0  0  0
    0.4297   -0.6060    0.6216 H   0  0  0  0  0  0  0  0  0  0  0  0
    1.9597   -0.0484   -0.0635 H   0  0  0  0  0  0  0  0  0  0  0  0
    2.8389    5.7034   -2.4606 H   0  0  0  0  0  0  0  0  0  0  0  0
    3.6009    7.5590   -7.0589 H   0  0  0  0  0  0  0  0  0  0  0  0
    2.7484    3.7907   -8.7020 H   0  0  0  0  0  0  0  0  0  0  0  0
    2.3833    2.8270   -6.5233 H   0  0  0  0  0  0  0  0  0  0  0  0
    3.5562    1.8087   -4.1366 H   0  0  0  0  0  0  0  0  0  0  0  0
    0.7022   -1.2480   -2.1867 H   0  0  0  0  0  0  0  0  0  0  0  0
    2.1613   -2.1702   -1.9153 H   0  0  0  0  0  0  0  0  0  0  0  0
   -0.2295    0.1615   -0.4573 H   0  0  0  0  0  0  0  0  0  0  0  0
    0.1559    1.5239    1.5904 H   0  0  0  0  0  0  0  0  0  0  0  0
    1.9551    0.9668    3.0286 H   0  0  0  0  0  0  0  0  0  0  0  0
    3.3859   -0.9885    2.4757 H   0  0  0  0  0  0  0  0  0  0  0  0
  1  2  1  0  0  0  0
  1 31  1  0  0  0  0
  1 32  1  0  0  0  0
  2  3  2  0  0  0  0
  2  4  1  0  0  0  0
  4  5  1  0  0  0  0
  4 21  2  0  0  0  0
  5  6  1  0  0  0  0
  6  7  1  0  0  0  0
  6 20  2  0  0  0  0
  7  8  1  0  0  0  0
  7 19  1  0  0  0  0
  8  9  2  0  0  0  0
  8 33  1  0  0  0  0
  9 10  1  0  0  0  0
 10 11  1  0  0  0  0
 10 19  2  0  0  0  0
 11 12  2  0  0  0  0
 11 34  1  0  0  0  0
 12 13  1  0  0  0  0
 12 17  1  0  0  0  0
 13 14  1  0  0  0  0
 13 15  1  0  0  0  0
 13 16  1  0  0  0  0
 17 18  2  0  0  0  0
 17 35  1  0  0  0  0
 18 19  1  0  0  0  0
 18 36  1  0  0  0  0
 20 21  1  0  0  0  0
 20 37  1  0  0  0  0
 21 22  1  0  0  0  0
 22 23  1  0  0  0  0
 23 24  1  0  0  0  0
 23 38  1  0  0  0  0
 23 39  1  0  0  0  0
 24 25  1  0  0  0  0
 24 29  2  0  0  0  0
 25 26  2  0  0  0  0
 25 40  1  0  0  0  0
 26 27  1  0  0  0  0
 26 41  1  0  0  0  0
 27 28  2  0  0  0  0
 27 42  1  0  0  0  0
 28 29  1  0  0  0  0
 28 43  1  0  0  0  0
 29 30  1  0  0  0  0
M  END
