REMARK  Name = 
REMARK  6 active torsions:
REMARK  status: ('A' for Active; 'I' for Inactive)
REMARK    1  A    between atoms: C_2  and  C_4
REMARK    2  A    between atoms: C_6  and  N_7
REMARK    3  A    between atoms: C_12  and  C_13
REMARK    4  A    between atoms: C_21  and  O_22
REMARK    5  A    between atoms: O_22  and  C_23
REMARK    6  A    between atoms: C_23  and  C_24
REMARK                            x       y       z     vdW  Elec       q    Type
REMARK                         _______ _______ _______ _____ _____    ______ ____
ROOT
ATOM      1  C   UNL     1       0.965  -1.828   1.847  0.00  0.00    +0.000 A 
ATOM      2  S   UNL     1       0.389  -3.408   2.221  0.00  0.00    +0.000 S 
ATOM      3  C   UNL     1       1.624  -3.610   3.401  0.00  0.00    +0.000 A 
ATOM      4  C   UNL     1       2.420  -2.512   3.505  0.00  0.00    +0.000 A 
ATOM      5  C   UNL     1       2.052  -1.492   2.620  0.00  0.00    +0.000 A 
ENDROOT
BRANCH   3   6
ATOM      6  N   UNL     1       1.799  -4.829   4.205  0.00  0.00    +0.000 N 
ATOM      7  C   UNL     1       2.163  -6.016   3.767  0.00  0.00    +0.000 A 
ATOM      8  N   UNL     1       2.346  -6.849   4.781  0.00  0.00    +0.000 NA
ATOM      9  C   UNL     1       2.100  -6.198   5.917  0.00  0.00    +0.000 A 
ATOM     10  C   UNL     1       2.125  -6.536   7.286  0.00  0.00    +0.000 A 
ATOM     11  C   UNL     1       1.809  -5.599   8.206  0.00  0.00    +0.000 A 
ATOM     12  C   UNL     1       1.461  -4.336   7.845  0.00  0.00    +0.000 A 
ATOM     13  C   UNL     1       1.425  -3.953   6.549  0.00  0.00    +0.000 A 
ATOM     14  C   UNL     1       1.741  -4.872   5.546  0.00  0.00    +0.000 A 
BRANCH  11  15
ATOM     15  C   UNL     1       1.845  -5.966   9.681  0.00  0.00    +0.000 C 
ATOM     16  F   UNL     1       0.989  -6.958   9.911  0.00  0.00    +0.000 F 
ATOM     17  F   UNL     1       3.073  -6.354  10.012  0.00  0.00    +0.000 F 
ATOM     18  F   UNL     1       1.503  -4.907  10.409  0.00  0.00    +0.000 F 
ENDBRANCH  11  15
ENDBRANCH   3   6
BRANCH   1  20
ATOM     19  N   UNL     1       0.940  -0.064  -0.049  0.00  0.00    +0.000 N 
ATOM     20  C   UNL     1       0.205  -0.931   0.883  0.00  0.00    +0.000 C 
ATOM     21  O   UNL     1      -1.066  -0.931   0.883  0.00  0.00    +0.000 OA
ATOM     22  H   UNL     1       0.430   0.538  -0.695  0.00  0.00    +0.000 HD
ATOM     23  H   UNL     1       1.960  -0.064  -0.049  0.00  0.00    +0.000 HD
ENDBRANCH   1  20
BRANCH   5  24
ATOM     24  O   UNL     1       2.727  -0.247   2.530  0.00  0.00    +0.000 OA
BRANCH  24  25
ATOM     25  C   UNL     1       2.287   0.734   1.603  0.00  0.00    +0.000 C 
BRANCH  25  26
ATOM     26  C   UNL     1       2.367   0.171   0.194  0.00  0.00    +0.000 A 
ATOM     27  C   UNL     1       1.747   0.877  -0.875  0.00  0.00    +0.000 A 
ATOM     28  C   UNL     1       1.509   0.216  -2.091  0.00  0.00    +0.000 A 
ATOM     29  C   UNL     1       2.086  -0.923  -2.336  0.00  0.00    +0.000 A 
ATOM     30  C   UNL     1       2.954  -1.489  -1.392  0.00  0.00    +0.000 A 
ATOM     31  C   UNL     1       2.962  -0.995  -0.065  0.00  0.00    +0.000 A 
ATOM     32 BR   UNL     1       3.833  -2.008   1.369  0.00  0.00    +0.000 Br
ENDBRANCH  25  26
ENDBRANCH  24  25
ENDBRANCH   5  24
TORSDOF 6
