REMARK  Name = 
REMARK  8 active torsions:
REMARK  status: ('A' for Active; 'I' for Inactive)
REMARK    1  A    between atoms: C_1  and  C_2
REMARK    2  A    between atoms: C_2  and  N_3
REMARK    3  A    between atoms: C_4  and  C_5
REMARK    4  A    between atoms: C_16  and  C_17
REMARK    5  A    between atoms: N_19  and  C_20
REMARK    6  A    between atoms: C_20  and  C_21
REMARK    7  A    between atoms: C_21  and  N_22
REMARK    8  A    between atoms: N_22  and  C_23
REMARK                            x       y       z     vdW  Elec       q    Type
REMARK                         _______ _______ _______ _____ _____    ______ ____
ROOT
ATOM      1  N   UNL     1       1.054   2.493   0.053  0.00  0.00    +0.000 N 
ATOM      2  C   UNL     1       0.633   3.690   0.408  0.00  0.00    +0.000 A 
ATOM      3  N   UNL     1       1.111   4.613  -0.415  0.00  0.00    +0.000 NA
ATOM      4  C   UNL     1       1.866   4.014  -1.334  0.00  0.00    +0.000 A 
ATOM      5  C   UNL     1       2.620   4.450  -2.444  0.00  0.00    +0.000 A 
ATOM      6  N   UNL     1       3.290   3.542  -3.187  0.00  0.00    +0.000 NA
ATOM      7  C   UNL     1       3.249   2.215  -2.897  0.00  0.00    +0.000 A 
ATOM      8  C   UNL     1       2.548   1.740  -1.844  0.00  0.00    +0.000 A 
ATOM      9  C   UNL     1       1.833   2.623  -1.032  0.00  0.00    +0.000 A 
ENDROOT
BRANCH   2  10
ATOM     10  C   UNL     1      -0.274   3.974   1.595  0.00  0.00    +0.000 A 
ATOM     11  N   UNL     1      -1.908   4.687   1.624  0.00  0.00    +0.000 NA
ATOM     12  O   UNL     1      -2.197   4.608   3.332  0.00  0.00    +0.000 OA
ATOM     13  N   UNL     1      -1.055   4.049   3.814  0.00  0.00    +0.000 NA
ATOM     14  C   UNL     1      -0.054   3.709   2.940  0.00  0.00    +0.000 A 
ATOM     15  N   UNL     1       1.196   3.092   3.406  0.00  0.00    +0.000 N 
ATOM     16  H   UNL     1       1.334   2.907   4.400  0.00  0.00    +0.000 HD
ATOM     17  H   UNL     1       1.925   2.848   2.736  0.00  0.00    +0.000 HD
ENDBRANCH   2  10
BRANCH   8  18
ATOM     18  C   UNL     1       2.537   0.250  -1.544  0.00  0.00    +0.000 C 
ATOM     19  O   UNL     1       1.877  -0.194  -0.554  0.00  0.00    +0.000 OA
ATOM     20  N   UNL     1       3.291  -0.677  -2.401  0.00  0.00    +0.000 N 
ATOM     21  H   UNL     1       3.284  -1.677  -2.200  0.00  0.00    +0.000 HD
BRANCH  20  22
ATOM     22  C   UNL     1       4.055  -0.164  -3.547  0.00  0.00    +0.000 C 
BRANCH  22  23
ATOM     23  C   UNL     1       5.524  -0.514  -3.375  0.00  0.00    +0.000 C 
BRANCH  23  24
ATOM     24  N   UNL     1       5.674  -1.974  -3.301  0.00  0.00    +0.000 NA
ATOM     25  C   UNL     1       7.094  -2.313  -3.135  0.00  0.00    +0.000 C 
ATOM     26  H   UNL     1       5.144  -2.331  -2.506  0.00  0.00    +0.000 HD
ENDBRANCH  23  24
ENDBRANCH  22  23
ENDBRANCH  20  22
ENDBRANCH   8  18
BRANCH   1  28
ATOM     27  C   UNL     1       1.071   0.054  -0.046  0.00  0.00    +0.000 C 
ATOM     28  C   UNL     1       0.564   1.272   0.709  0.00  0.00    +0.000 C 
ENDBRANCH   1  28
TORSDOF 6
