
 OpenBabel03132514253D

 42 44  0  0  0  0  0  0  0  0999 V2000
    0.9534    0.0667   -0.0581 C   0  0  0  0  0  0  0  0  0  0  0  0
    0.4467   -0.7665    1.1078 C   0  0  0  0  0  0  0  0  0  0  0  0
    0.9367   -0.1929    2.3695 N   0  0  0  0  0  0  0  0  0  0  0  0
    0.8236    1.0793    2.6924 C   0  0  0  0  0  0  0  0  0  0  0  0
    0.3079    2.1664    1.7636 C   0  0  0  0  0  0  0  0  0  0  0  0
    0.9404    3.7803    1.3425 N   0  0  0  0  0  0  0  0  0  0  0  0
   -0.4319    4.3789    0.4684 O   0  0  0  0  0  0  0  0  0  0  0  0
   -1.3129    3.3441    0.5265 N   0  0  0  0  0  0  0  0  0  0  0  0
   -0.9524    2.1937    1.1821 C   0  0  0  0  0  0  0  0  0  0  0  0
   -1.8608    1.0409    1.2649 N   0  0  0  0  0  0  0  0  0  0  0  0
    1.2224    1.2785    3.9401 N   0  0  0  0  0  0  0  0  0  0  0  0
    1.6068    0.1120    4.4560 C   0  0  0  0  0  0  0  0  0  0  0  0
    2.1139   -0.3079    5.7036 C   0  0  0  0  0  0  0  0  0  0  0  0
    2.4086   -1.6123    5.8938 N   0  0  0  0  0  0  0  0  0  0  0  0
    2.2349   -2.5321    4.9085 C   0  0  0  0  0  0  0  0  0  0  0  0
    1.7478   -2.1891    3.6951 C   0  0  0  0  0  0  0  0  0  0  0  0
    1.5560   -3.2490    2.6226 C   0  0  0  0  0  0  0  0  0  0  0  0
    1.0979   -2.9238    1.4826 O   0  0  0  0  0  0  0  0  0  0  0  0
    1.9005   -4.6501    2.9040 N   0  0  0  0  0  0  0  0  0  0  0  0
    2.4304   -5.0262    4.2226 C   0  0  0  0  0  0  0  0  0  0  0  0
    1.5027   -6.0409    4.8708 C   0  0  0  0  0  0  0  0  0  0  0  0
    1.4127   -7.2362    4.0198 N   0  0  0  0  0  0  0  0  0  0  0  0
    0.5155   -8.2175    4.6467 C   0  0  0  0  0  0  0  0  0  0  0  0
    1.4215   -0.8575    3.4308 C   0  0  0  0  0  0  0  0  0  0  0  0
    0.5967    1.0708    0.0395 H   0  0  0  0  0  0  0  0  0  0  0  0
    0.5967   -0.3508   -0.9765 H   0  0  0  0  0  0  0  0  0  0  0  0
    2.0234    0.0667   -0.0581 H   0  0  0  0  0  0  0  0  0  0  0  0
   -0.6233   -0.7665    1.1078 H   0  0  0  0  0  0  0  0  0  0  0  0
    0.8034   -1.7706    1.0102 H   0  0  0  0  0  0  0  0  0  0  0  0
   -2.7821    1.0852    0.8294 H   0  0  0  0  0  0  0  0  0  0  0  0
   -1.5698    0.1967    1.7579 H   0  0  0  0  0  0  0  0  0  0  0  0
    2.2638    0.4002    6.4916 H   0  0  0  0  0  0  0  0  0  0  0  0
    2.4902   -3.5537    5.0981 H   0  0  0  0  0  0  0  0  0  0  0  0
    1.7718   -5.3613    2.1843 H   0  0  0  0  0  0  0  0  0  0  0  0
    3.4036   -5.4556    4.1066 H   0  0  0  0  0  0  0  0  0  0  0  0
    2.4960   -4.1562    4.8420 H   0  0  0  0  0  0  0  0  0  0  0  0
    1.8885   -6.3147    5.8306 H   0  0  0  0  0  0  0  0  0  0  0  0
    0.5296   -5.6115    4.9867 H   0  0  0  0  0  0  0  0  0  0  0  0
    1.0450   -6.9752    3.1049 H   0  0  0  0  0  0  0  0  0  0  0  0
   -0.4576   -7.7881    4.7627 H   0  0  0  0  0  0  0  0  0  0  0  0
    0.4500   -9.0875    4.0273 H   0  0  0  0  0  0  0  0  0  0  0  0
    0.9012   -8.4913    5.6065 H   0  0  0  0  0  0  0  0  0  0  0  0
  1  2  1  0  0  0  0
  1 25  1  0  0  0  0
  1 26  1  0  0  0  0
  1 27  1  0  0  0  0
  2  3  1  0  0  0  0
  2 28  1  0  0  0  0
  2 29  1  0  0  0  0
  3  4  1  0  0  0  0
  3 24  1  0  0  0  0
  4  5  1  0  0  0  0
  4 11  2  0  0  0  0
  5  6  2  0  0  0  0
  5  9  1  0  0  0  0
  6  7  1  0  0  0  0
  7  8  1  0  0  0  0
  8  9  2  0  0  0  0
  9 10  1  0  0  0  0
 10 30  1  0  0  0  0
 10 31  1  0  0  0  0
 11 12  1  0  0  0  0
 12 13  1  0  0  0  0
 12 24  2  0  0  0  0
 13 14  2  0  0  0  0
 13 32  1  0  0  0  0
 14 15  1  0  0  0  0
 15 16  2  0  0  0  0
 15 33  1  0  0  0  0
 16 17  1  0  0  0  0
 16 24  1  0  0  0  0
 17 18  2  0  0  0  0
 17 19  1  0  0  0  0
 19 20  1  0  0  0  0
 19 34  1  0  0  0  0
 20 21  1  0  0  0  0
 20 35  1  0  0  0  0
 20 36  1  0  0  0  0
 21 22  1  0  0  0  0
 21 37  1  0  0  0  0
 21 38  1  0  0  0  0
 22 23  1  0  0  0  0
 22 39  1  0  0  0  0
 23 40  1  0  0  0  0
 23 41  1  0  0  0  0
 23 42  1  0  0  0  0
M  END
