
 OpenBabel03132512093D

 42 44  0  0  0  0  0  0  0  0999 V2000
    1.0705    0.0540   -0.0460 C   0  0  0  0  0  0  0  0  0  0  0  0
    0.5638    1.2723    0.7087 C   0  0  0  0  0  0  0  0  0  0  0  0
    1.0538    2.4934    0.0533 N   0  0  0  0  0  0  0  0  0  0  0  0
    0.6330    3.6904    0.4078 C   0  0  0  0  0  0  0  0  0  0  0  0
   -0.2735    3.9738    1.5946 C   0  0  0  0  0  0  0  0  0  0  0  0
   -1.9082    4.6874    1.6240 N   0  0  0  0  0  0  0  0  0  0  0  0
   -2.1972    4.6082    3.3316 O   0  0  0  0  0  0  0  0  0  0  0  0
   -1.0548    4.0493    3.8145 N   0  0  0  0  0  0  0  0  0  0  0  0
   -0.0539    3.7092    2.9396 C   0  0  0  0  0  0  0  0  0  0  0  0
    1.1959    3.0917    3.4061 N   0  0  0  0  0  0  0  0  0  0  0  0
    1.1105    4.6127   -0.4149 N   0  0  0  0  0  0  0  0  0  0  0  0
    1.8659    4.0136   -1.3342 C   0  0  0  0  0  0  0  0  0  0  0  0
    2.6202    4.4497   -2.4437 C   0  0  0  0  0  0  0  0  0  0  0  0
    3.2897    3.5425   -3.1874 N   0  0  0  0  0  0  0  0  0  0  0  0
    3.2494    2.2154   -2.8972 C   0  0  0  0  0  0  0  0  0  0  0  0
    2.5479    1.7400   -1.8441 C   0  0  0  0  0  0  0  0  0  0  0  0
    2.5373    0.2499   -1.5445 C   0  0  0  0  0  0  0  0  0  0  0  0
    1.8769   -0.1944   -0.5537 O   0  0  0  0  0  0  0  0  0  0  0  0
    3.2908   -0.6774   -2.4008 N   0  0  0  0  0  0  0  0  0  0  0  0
    4.0546   -0.1635   -3.5469 C   0  0  0  0  0  0  0  0  0  0  0  0
    5.5236   -0.5140   -3.3749 C   0  0  0  0  0  0  0  0  0  0  0  0
    5.6736   -1.9744   -3.3013 N   0  0  0  0  0  0  0  0  0  0  0  0
    7.0943   -2.3134   -3.1349 C   0  0  0  0  0  0  0  0  0  0  0  0
    1.8332    2.6232   -1.0325 C   0  0  0  0  0  0  0  0  0  0  0  0
    0.7138    0.0853   -1.0543 H   0  0  0  0  0  0  0  0  0  0  0  0
    0.7138   -0.8349    0.4311 H   0  0  0  0  0  0  0  0  0  0  0  0
    2.1405    0.0540   -0.0460 H   0  0  0  0  0  0  0  0  0  0  0  0
   -0.5062    1.2722    0.7087 H   0  0  0  0  0  0  0  0  0  0  0  0
    0.9205    1.2409    1.7170 H   0  0  0  0  0  0  0  0  0  0  0  0
    1.3337    2.9071    4.3997 H   0  0  0  0  0  0  0  0  0  0  0  0
    1.9253    2.8478    2.7361 H   0  0  0  0  0  0  0  0  0  0  0  0
    2.6615    5.4892   -2.6936 H   0  0  0  0  0  0  0  0  0  0  0  0
    3.7866    1.5293   -3.5182 H   0  0  0  0  0  0  0  0  0  0  0  0
    3.2837   -1.6773   -2.1998 H   0  0  0  0  0  0  0  0  0  0  0  0
    3.6856   -0.6058   -4.4486 H   0  0  0  0  0  0  0  0  0  0  0  0
    3.9455    0.8996   -3.6004 H   0  0  0  0  0  0  0  0  0  0  0  0
    6.0796   -0.1399   -4.2090 H   0  0  0  0  0  0  0  0  0  0  0  0
    5.8926   -0.0716   -2.4731 H   0  0  0  0  0  0  0  0  0  0  0  0
    5.1436   -2.3310   -2.5061 H   0  0  0  0  0  0  0  0  0  0  0  0
    7.4632   -1.8711   -2.2332 H   0  0  0  0  0  0  0  0  0  0  0  0
    7.2034   -3.3764   -3.0813 H   0  0  0  0  0  0  0  0  0  0  0  0
    7.6502   -1.9393   -3.9691 H   0  0  0  0  0  0  0  0  0  0  0  0
  1  2  1  0  0  0  0
  1 25  1  0  0  0  0
  1 26  1  0  0  0  0
  1 27  1  0  0  0  0
  2  3  1  0  0  0  0
  2 28  1  0  0  0  0
  2 29  1  0  0  0  0
  3  4  1  0  0  0  0
  3 24  1  0  0  0  0
  4  5  1  0  0  0  0
  4 11  2  0  0  0  0
  5  6  2  0  0  0  0
  5  9  1  0  0  0  0
  6  7  1  0  0  0  0
  7  8  1  0  0  0  0
  8  9  2  0  0  0  0
  9 10  1  0  0  0  0
 10 30  1  0  0  0  0
 10 31  1  0  0  0  0
 11 12  1  0  0  0  0
 12 13  1  0  0  0  0
 12 24  2  0  0  0  0
 13 14  2  0  0  0  0
 13 32  1  0  0  0  0
 14 15  1  0  0  0  0
 15 16  2  0  0  0  0
 15 33  1  0  0  0  0
 16 17  1  0  0  0  0
 16 24  1  0  0  0  0
 17 18  2  0  0  0  0
 17 19  1  0  0  0  0
 19 20  1  0  0  0  0
 19 34  1  0  0  0  0
 20 21  1  0  0  0  0
 20 35  1  0  0  0  0
 20 36  1  0  0  0  0
 21 22  1  0  0  0  0
 21 37  1  0  0  0  0
 21 38  1  0  0  0  0
 22 23  1  0  0  0  0
 22 39  1  0  0  0  0
 23 40  1  0  0  0  0
 23 41  1  0  0  0  0
 23 42  1  0  0  0  0
M  END
