REMARK  Name = 
REMARK  7 active torsions:
REMARK  status: ('A' for Active; 'I' for Inactive)
REMARK    1  A    between atoms: N_1  and  CA_2
REMARK    2  A    between atoms: CA_2  and  C_3
REMARK    3  A    between atoms: CA_2  and  C_8
REMARK    4  A    between atoms: C_3  and  C_4
REMARK    5  A    between atoms: C_4  and  S_5
REMARK    6  A    between atoms: S_5  and  O_7
REMARK    7  A    between atoms: C_8  and  OXT_10
REMARK                            x       y       z     vdW  Elec       q    Type
REMARK                         _______ _______ _______ _____ _____    ______ ____
ROOT
ATOM      1  CA  UNL     1       0.543   0.154   1.468  0.00  0.00    +0.000 C 
ENDROOT
BRANCH   1   2
ATOM      2  N   UNL     1       1.033   0.036   0.087  0.00  0.00    +0.000 NA
ATOM      3  H1  UNL     1       0.693   0.825  -0.463  0.00  0.00    +0.000 HD
ATOM      4  H2  UNL     1       2.053   0.036   0.087  0.00  0.00    +0.000 HD
ENDBRANCH   1   2
BRANCH   1   5
ATOM      5  C   UNL     1      -0.977   0.154   1.468  0.00  0.00    +0.000 C 
ATOM      6  O   UNL     1      -1.612  -0.749   2.097  0.00  0.00    +0.000 OA
BRANCH   5   7
ATOM      7  OXT UNL     1      -1.687   1.163   0.765  0.00  0.00    +0.000 OA
ATOM      8  HXT UNL     1      -2.687   1.163   0.765  0.00  0.00    +0.000 HD
ENDBRANCH   5   7
ENDBRANCH   1   5
BRANCH   1   9
ATOM      9  C   UNL     1       1.050   1.451   2.077  0.00  0.00    +0.000 C 
BRANCH   9  10
ATOM     10  C   UNL     1       0.543   2.627   1.257  0.00  0.00    +0.000 C 
BRANCH  10  11
ATOM     11  S   UNL     1      -1.267   2.627   1.257  0.00  0.00    +0.000 S 
ATOM     12  O   UNL     1      -1.777   3.811   0.432  0.00  0.00    +0.000 OA
BRANCH  11  13
ATOM     13  O   UNL     1      -1.837   1.167   0.573  0.00  0.00    +0.000 OA
ATOM     14  H   UNL     1      -2.837   1.167   0.573  0.00  0.00    +0.000 HD
ENDBRANCH  11  13
ENDBRANCH  10  11
ENDBRANCH   9  10
ENDBRANCH   1   9
TORSDOF 7
