
 OpenBabel03132514253D

 19 18  0  0  0  0  0  0  0  0999 V2000
    1.0870    0.0094   -0.0484 N   0  0  0  0  0  0  0  0  0  0  0  0
    0.5970    0.1039    1.3343 C   0  0  0  0  0  0  0  0  0  0  0  0
    1.1037    1.3909    1.9645 C   0  0  0  0  0  0  0  0  0  0  0  0
    0.5970    2.5803    1.1651 C   0  0  0  0  0  0  0  0  0  0  0  0
   -1.2130    2.5803    1.1651 S   0  0  0  0  0  0  0  0  0  0  0  0
   -1.7232    3.7778    0.3601 O   0  0  0  0  0  0  0  0  0  0  0  0
   -1.7830    1.1324    0.4560 O   0  0  0  0  0  0  0  0  0  0  0  0
   -0.9230    0.1039    1.3343 C   0  0  0  0  0  0  0  0  0  0  0  0
   -1.5585   -0.8095    1.9483 O   0  0  0  0  0  0  0  0  0  0  0  0
   -1.6330    1.1245    0.6482 O   0  0  0  0  0  0  0  0  0  0  0  0
    0.7470    0.8075   -0.5849 H   0  0  0  0  0  0  0  0  0  0  0  0
    2.1070    0.0094   -0.0484 H   0  0  0  0  0  0  0  0  0  0  0  0
    0.9537   -0.7333    1.8971 H   0  0  0  0  0  0  0  0  0  0  0  0
    0.7470    1.4597    2.9710 H   0  0  0  0  0  0  0  0  0  0  0  0
    2.1737    1.3909    1.9645 H   0  0  0  0  0  0  0  0  0  0  0  0
    0.9537    3.4863    1.6087 H   0  0  0  0  0  0  0  0  0  0  0  0
    0.9537    2.5115    0.1586 H   0  0  0  0  0  0  0  0  0  0  0  0
   -2.7830    1.1324    0.4560 H   0  0  0  0  0  0  0  0  0  0  0  0
   -2.6330    1.1245    0.6482 H   0  0  0  0  0  0  0  0  0  0  0  0
  1  2  1  0  0  0  0
  1 11  1  0  0  0  0
  1 12  1  0  0  0  0
  2  3  1  0  0  0  0
  2  8  1  0  0  0  0
  2 13  1  0  0  0  0
  3  4  1  0  0  0  0
  3 14  1  0  0  0  0
  3 15  1  0  0  0  0
  4  5  1  0  0  0  0
  4 16  1  0  0  0  0
  4 17  1  0  0  0  0
  5  6  2  0  0  0  0
  5  7  1  0  0  0  0
  7 18  1  0  0  0  0
  8  9  2  0  0  0  0
  8 10  1  0  0  0  0
 10 19  1  0  0  0  0
M  END
