REMARK  Name = 
REMARK  7 active torsions:
REMARK  status: ('A' for Active; 'I' for Inactive)
REMARK    1  A    between atoms: N_1  and  CA_2
REMARK    2  A    between atoms: CA_2  and  C_3
REMARK    3  A    between atoms: CA_2  and  C_8
REMARK    4  A    between atoms: C_3  and  C_4
REMARK    5  A    between atoms: C_4  and  S_5
REMARK    6  A    between atoms: S_5  and  O_7
REMARK    7  A    between atoms: C_8  and  OXT_10
REMARK                            x       y       z     vdW  Elec       q    Type
REMARK                         _______ _______ _______ _____ _____    ______ ____
ROOT
ATOM      1  CA  UNL     1       0.597   0.104   1.334  0.00  0.00    +0.000 C 
ENDROOT
BRANCH   1   2
ATOM      2  N   UNL     1       1.087   0.009  -0.048  0.00  0.00    +0.000 NA
ATOM      3  H1  UNL     1       0.747   0.807  -0.585  0.00  0.00    +0.000 HD
ATOM      4  H2  UNL     1       2.107   0.009  -0.048  0.00  0.00    +0.000 HD
ENDBRANCH   1   2
BRANCH   1   5
ATOM      5  C   UNL     1      -0.923   0.104   1.334  0.00  0.00    +0.000 C 
ATOM      6  O   UNL     1      -1.558  -0.809   1.948  0.00  0.00    +0.000 OA
BRANCH   5   7
ATOM      7  OXT UNL     1      -1.633   1.125   0.648  0.00  0.00    +0.000 OA
ATOM      8  HXT UNL     1      -2.633   1.125   0.648  0.00  0.00    +0.000 HD
ENDBRANCH   5   7
ENDBRANCH   1   5
BRANCH   1   9
ATOM      9  C   UNL     1       1.104   1.391   1.964  0.00  0.00    +0.000 C 
BRANCH   9  10
ATOM     10  C   UNL     1       0.597   2.580   1.165  0.00  0.00    +0.000 C 
BRANCH  10  11
ATOM     11  S   UNL     1      -1.213   2.580   1.165  0.00  0.00    +0.000 S 
ATOM     12  O   UNL     1      -1.723   3.778   0.360  0.00  0.00    +0.000 OA
BRANCH  11  13
ATOM     13  O   UNL     1      -1.783   1.132   0.456  0.00  0.00    +0.000 OA
ATOM     14  H   UNL     1      -2.783   1.132   0.456  0.00  0.00    +0.000 HD
ENDBRANCH  11  13
ENDBRANCH  10  11
ENDBRANCH   9  10
ENDBRANCH   1   9
TORSDOF 7
