REMARK  Name = 
REMARK  17 active torsions:
REMARK  status: ('A' for Active; 'I' for Inactive)
REMARK    1  A    between atoms: C_1  and  C_2
REMARK    2  A    between atoms: C_2  and  C_3
REMARK    3  A    between atoms: C_3  and  C_4
REMARK    4  A    between atoms: C_4  and  C_5
REMARK    5  A    between atoms: C_5  and  C_6
REMARK    6  A    between atoms: C_6  and  C_7
REMARK    7  A    between atoms: C_7  and  C_8
REMARK    8  A    between atoms: C_8  and  C_9
REMARK    9  A    between atoms: C_8  and  C_10
REMARK   10  A    between atoms: C_10  and  C_11
REMARK   11  A    between atoms: C_10  and  C_12
REMARK   12  A    between atoms: C_12  and  C_13
REMARK   13  A    between atoms: C_13  and  C_14
REMARK   14  A    between atoms: C_14  and  C_15
REMARK   15  A    between atoms: C_15  and  C_16
REMARK   16  A    between atoms: C_16  and  C_17
REMARK   17  A    between atoms: C_17  and  C_18
REMARK                            x       y       z     vdW  Elec       q    Type
REMARK                         _______ _______ _______ _____ _____    ______ ____
ROOT
ATOM      1  C   UNL     1      -1.568  -5.586   1.570  0.00  0.00    +0.000 C 
ATOM      2  C   UNL     1      -3.088  -5.586   1.570  0.00  0.00    +0.000 C 
ENDROOT
BRANCH   1   3
ATOM      3  C   UNL     1      -1.061  -6.961   1.972  0.00  0.00    +0.000 C 
ATOM      4  C   UNL     1       0.459  -6.962   1.972  0.00  0.00    +0.000 C 
BRANCH   3   5
ATOM      5  C   UNL     1      -1.568  -7.301   3.365  0.00  0.00    +0.000 C 
BRANCH   5   6
ATOM      6  C   UNL     1      -3.088  -7.300   3.365  0.00  0.00    +0.000 C 
BRANCH   6   7
ATOM      7  C   UNL     1      -3.594  -8.337   2.375  0.00  0.00    +0.000 C 
BRANCH   7   8
ATOM      8  C   UNL     1      -3.088  -9.712   2.778  0.00  0.00    +0.000 C 
BRANCH   8   9
ATOM      9  C   UNL     1      -3.594 -10.051   4.170  0.00  0.00    +0.000 C 
BRANCH   9  10
ATOM     10  C   UNL     1      -5.114 -10.051   4.170  0.00  0.00    +0.000 C 
ATOM     11  C   UNL     1      -5.621 -11.088   3.180  0.00  0.00    +0.000 C 
ENDBRANCH   9  10
ENDBRANCH   8   9
ENDBRANCH   7   8
ENDBRANCH   6   7
ENDBRANCH   5   6
ENDBRANCH   3   5
ENDBRANCH   1   3
BRANCH   1  12
ATOM     12  C   UNL     1      -1.061  -5.247   0.177  0.00  0.00    +0.000 C 
BRANCH  12  13
ATOM     13  C   UNL     1      -1.568  -3.872  -0.225  0.00  0.00    +0.000 C 
BRANCH  13  14
ATOM     14  C   UNL     1      -1.061  -2.835   0.764  0.00  0.00    +0.000 C 
BRANCH  14  15
ATOM     15  C   UNL     1       0.459  -2.835   0.764  0.00  0.00    +0.000 C 
BRANCH  15  16
ATOM     16  C   UNL     1       0.966  -2.496  -0.628  0.00  0.00    +0.000 C 
BRANCH  16  18
ATOM     17  C   UNL     1       0.966  -0.085  -0.041  0.00  0.00    +0.000 C 
ATOM     18  C   UNL     1       0.459  -1.121  -1.030  0.00  0.00    +0.000 C 
ENDBRANCH  16  18
ENDBRANCH  15  16
ENDBRANCH  14  15
ENDBRANCH  13  14
ENDBRANCH  12  13
ENDBRANCH   1  12
TORSDOF 13
