
 OpenBabel03132512093D

 56 55  0  0  0  0  0  0  0  0999 V2000
    1.0448    0.0575    0.0685 C   0  0  0  0  0  0  0  0  0  0  0  0
    0.5381   -0.0090   -1.3630 C   0  0  0  0  0  0  0  0  0  0  0  0
    1.0447   -1.2820   -2.0212 C   0  0  0  0  0  0  0  0  0  0  0  0
    0.5381   -2.4885   -1.2478 C   0  0  0  0  0  0  0  0  0  0  0  0
   -0.9819   -2.4885   -1.2478 C   0  0  0  0  0  0  0  0  0  0  0  0
   -1.4886   -2.5551   -2.6793 C   0  0  0  0  0  0  0  0  0  0  0  0
   -0.9819   -3.8281   -3.3374 C   0  0  0  0  0  0  0  0  0  0  0  0
   -1.4886   -5.0345   -2.5641 C   0  0  0  0  0  0  0  0  0  0  0  0
   -3.0086   -5.0345   -2.5641 C   0  0  0  0  0  0  0  0  0  0  0  0
   -0.9819   -6.3075   -3.2222 C   0  0  0  0  0  0  0  0  0  0  0  0
    0.5381   -6.3075   -3.2222 C   0  0  0  0  0  0  0  0  0  0  0  0
   -1.4886   -7.5140   -2.4488 C   0  0  0  0  0  0  0  0  0  0  0  0
   -3.0086   -7.5140   -2.4488 C   0  0  0  0  0  0  0  0  0  0  0  0
   -3.5153   -7.5805   -3.8803 C   0  0  0  0  0  0  0  0  0  0  0  0
   -3.0086   -8.8536   -4.5385 C   0  0  0  0  0  0  0  0  0  0  0  0
   -3.5153  -10.0600   -3.7651 C   0  0  0  0  0  0  0  0  0  0  0  0
   -5.0353  -10.0600   -3.7651 C   0  0  0  0  0  0  0  0  0  0  0  0
   -5.5420  -10.1266   -5.1966 C   0  0  0  0  0  0  0  0  0  0  0  0
    0.6881   -0.7918    0.6129 H   0  0  0  0  0  0  0  0  0  0  0  0
    0.6881    0.9536    0.5318 H   0  0  0  0  0  0  0  0  0  0  0  0
    2.1148    0.0575    0.0685 H   0  0  0  0  0  0  0  0  0  0  0  0
   -0.5319   -0.0090   -1.3630 H   0  0  0  0  0  0  0  0  0  0  0  0
    0.8948    0.8403   -1.9075 H   0  0  0  0  0  0  0  0  0  0  0  0
    0.6881   -1.3289   -3.0289 H   0  0  0  0  0  0  0  0  0  0  0  0
    2.1147   -1.2820   -2.0212 H   0  0  0  0  0  0  0  0  0  0  0  0
    0.8947   -3.3846   -1.7111 H   0  0  0  0  0  0  0  0  0  0  0  0
    0.8947   -2.4417   -0.2401 H   0  0  0  0  0  0  0  0  0  0  0  0
   -1.3386   -3.3378   -0.7034 H   0  0  0  0  0  0  0  0  0  0  0  0
   -1.3386   -1.5924   -0.7845 H   0  0  0  0  0  0  0  0  0  0  0  0
   -2.5586   -2.5551   -2.6793 H   0  0  0  0  0  0  0  0  0  0  0  0
   -1.1319   -1.7058   -3.2237 H   0  0  0  0  0  0  0  0  0  0  0  0
   -1.3386   -3.8749   -4.3452 H   0  0  0  0  0  0  0  0  0  0  0  0
    0.0881   -3.8281   -3.3374 H   0  0  0  0  0  0  0  0  0  0  0  0
   -1.1319   -4.9877   -1.5563 H   0  0  0  0  0  0  0  0  0  0  0  0
   -3.3653   -5.0814   -3.5718 H   0  0  0  0  0  0  0  0  0  0  0  0
   -3.3653   -5.8838   -2.0196 H   0  0  0  0  0  0  0  0  0  0  0  0
   -3.3653   -4.1384   -2.1008 H   0  0  0  0  0  0  0  0  0  0  0  0
   -1.3386   -6.3544   -4.2299 H   0  0  0  0  0  0  0  0  0  0  0  0
    0.8947   -6.2607   -2.2145 H   0  0  0  0  0  0  0  0  0  0  0  0
    0.8947   -7.2037   -3.6855 H   0  0  0  0  0  0  0  0  0  0  0  0
    0.8947   -5.4583   -3.7666 H   0  0  0  0  0  0  0  0  0  0  0  0
   -1.1319   -8.4101   -2.9121 H   0  0  0  0  0  0  0  0  0  0  0  0
   -1.1319   -7.4672   -1.4411 H   0  0  0  0  0  0  0  0  0  0  0  0
   -3.3653   -8.3633   -1.9044 H   0  0  0  0  0  0  0  0  0  0  0  0
   -3.3653   -6.6179   -1.9855 H   0  0  0  0  0  0  0  0  0  0  0  0
   -4.5853   -7.5805   -3.8803 H   0  0  0  0  0  0  0  0  0  0  0  0
   -3.1586   -6.7313   -4.4247 H   0  0  0  0  0  0  0  0  0  0  0  0
   -3.3653   -8.9004   -5.5462 H   0  0  0  0  0  0  0  0  0  0  0  0
   -1.9386   -8.8536   -4.5385 H   0  0  0  0  0  0  0  0  0  0  0  0
   -3.1586  -10.9562   -4.2284 H   0  0  0  0  0  0  0  0  0  0  0  0
   -3.1586  -10.0132   -2.7574 H   0  0  0  0  0  0  0  0  0  0  0  0
   -5.3920  -10.9093   -3.2206 H   0  0  0  0  0  0  0  0  0  0  0  0
   -5.3920   -9.1639   -3.3018 H   0  0  0  0  0  0  0  0  0  0  0  0
   -5.1853  -11.0227   -5.6599 H   0  0  0  0  0  0  0  0  0  0  0  0
   -6.6120  -10.1266   -5.1966 H   0  0  0  0  0  0  0  0  0  0  0  0
   -5.1853   -9.2773   -5.7410 H   0  0  0  0  0  0  0  0  0  0  0  0
  1  2  1  0  0  0  0
  1 19  1  0  0  0  0
  1 20  1  0  0  0  0
  1 21  1  0  0  0  0
  2  3  1  0  0  0  0
  2 22  1  0  0  0  0
  2 23  1  0  0  0  0
  3  4  1  0  0  0  0
  3 24  1  0  0  0  0
  3 25  1  0  0  0  0
  4  5  1  0  0  0  0
  4 26  1  0  0  0  0
  4 27  1  0  0  0  0
  5  6  1  0  0  0  0
  5 28  1  0  0  0  0
  5 29  1  0  0  0  0
  6  7  1  0  0  0  0
  6 30  1  0  0  0  0
  6 31  1  0  0  0  0
  7  8  1  0  0  0  0
  7 32  1  0  0  0  0
  7 33  1  0  0  0  0
  8  9  1  0  0  0  0
  8 10  1  0  0  0  0
  8 34  1  0  0  0  0
  9 35  1  0  0  0  0
  9 36  1  0  0  0  0
  9 37  1  0  0  0  0
 10 11  1  0  0  0  0
 10 12  1  0  0  0  0
 10 38  1  0  0  0  0
 11 39  1  0  0  0  0
 11 40  1  0  0  0  0
 11 41  1  0  0  0  0
 12 13  1  0  0  0  0
 12 42  1  0  0  0  0
 12 43  1  0  0  0  0
 13 14  1  0  0  0  0
 13 44  1  0  0  0  0
 13 45  1  0  0  0  0
 14 15  1  0  0  0  0
 14 46  1  0  0  0  0
 14 47  1  0  0  0  0
 15 16  1  0  0  0  0
 15 48  1  0  0  0  0
 15 49  1  0  0  0  0
 16 17  1  0  0  0  0
 16 50  1  0  0  0  0
 16 51  1  0  0  0  0
 17 18  1  0  0  0  0
 17 52  1  0  0  0  0
 17 53  1  0  0  0  0
 18 54  1  0  0  0  0
 18 55  1  0  0  0  0
 18 56  1  0  0  0  0
M  END
