REMARK  Name = 
REMARK  12 active torsions:
REMARK  status: ('A' for Active; 'I' for Inactive)
REMARK    1  A    between atoms: C_1  and  C_2
REMARK    2  A    between atoms: C_5  and  C_6
REMARK    3  A    between atoms: C_6  and  O_8
REMARK    4  A    between atoms: C_11  and  C_12
REMARK    5  A    between atoms: C_17  and  C_18
REMARK    6  A    between atoms: C_21  and  O_22
REMARK    7  A    between atoms: C_23  and  C_24
REMARK    8  A    between atoms: C_23  and  C_25
REMARK    9  A    between atoms: C_25  and  O_27
REMARK   10  A    between atoms: C_31  and  C_32
REMARK   11  A    between atoms: C_34  and  C_35
REMARK   12  A    between atoms: C_34  and  O_36
REMARK                            x       y       z     vdW  Elec       q    Type
REMARK                         _______ _______ _______ _____ _____    ______ ____
ROOT
ATOM      1  C   UNL     1       1.037   0.011   0.092  0.00  0.00    +0.000 C 
ATOM      2  C   UNL     1       0.531  -1.341  -0.383  0.00  0.00    +0.000 C 
ATOM      3  C   UNL     1       0.730  -2.304   0.687  0.00  0.00    +0.000 C 
ATOM      4  C   UNL     1       1.847  -3.046   0.638  0.00  0.00    +0.000 C 
ATOM      5  C   UNL     1       2.121  -4.067   1.711  0.00  0.00    +0.000 C 
ATOM      6  C   UNL     1       2.568  -5.380   1.065  0.00  0.00    +0.000 C 
ATOM      7  C   UNL     1       1.381  -6.338   0.989  0.00  0.00    +0.000 C 
ATOM      8  C   UNL     1       1.016  -6.581  -0.477  0.00  0.00    +0.000 C 
ATOM      9  C   UNL     1       2.253  -7.306  -0.982  0.00  0.00    +0.000 C 
ATOM     10  C   UNL     1      -1.863  -3.363  -1.830  0.00  0.00    +0.000 C 
ATOM     11  C   UNL     1      -1.522  -4.356  -2.613  0.00  0.00    +0.000 C 
ATOM     12  C   UNL     1      -2.051  -5.742  -2.348  0.00  0.00    +0.000 C 
ATOM     13  C   UNL     1      -0.880  -6.696  -2.099  0.00  0.00    +0.000 C 
ATOM     14  C   UNL     1       0.314  -6.263  -2.934  0.00  0.00    +0.000 C 
ATOM     15  C   UNL     1      -0.113  -6.331  -4.391  0.00  0.00    +0.000 C 
ATOM     16  C   UNL     1       0.733  -4.827  -2.607  0.00  0.00    +0.000 C 
ATOM     17  C   UNL     1       1.203  -4.764  -1.259  0.00  0.00    +0.000 C 
ATOM     18  C   UNL     1       2.346  -5.582  -1.001  0.00  0.00    +0.000 C 
ATOM     19  C   UNL     1       1.992  -7.048  -1.262  0.00  0.00    +0.000 C 
ATOM     20  C   UNL     1       0.895  -7.487  -0.306  0.00  0.00    +0.000 C 
ATOM     21  C   UNL     1       1.507  -7.198  -2.708  0.00  0.00    +0.000 C 
ATOM     22  C   UNL     1       1.086  -8.636  -2.961  0.00  0.00    +0.000 C 
ATOM     23  C   UNL     1      -1.142  -5.452   0.042  0.00  0.00    +0.000 C 
ATOM     24  C   UNL     1      -0.505  -6.665  -0.616  0.00  0.00    +0.000 C 
ATOM     25  C   UNL     1      -1.007  -7.931   0.060  0.00  0.00    +0.000 C 
ATOM     26  C   UNL     1      -1.334  -1.978  -2.095  0.00  0.00    +0.000 C 
ATOM     27  C   UNL     1      -0.919  -1.341  -0.793  0.00  0.00    +0.000 C 
ATOM     28  C   UNL     1      -1.220   0.133  -1.014  0.00  0.00    +0.000 C 
ENDROOT
BRANCH   5  29
ATOM     29  C   UNL     1       2.530  -4.224   3.167  0.00  0.00    +0.000 C 
ATOM     30  O   UNL     1       2.764  -3.195   3.876  0.00  0.00    +0.000 OA
BRANCH  29  31
ATOM     31  O   UNL     1       2.652  -5.520   3.735  0.00  0.00    +0.000 OA
ATOM     32  H   UNL     1       2.921  -5.623   4.692  0.00  0.00    +0.000 HD
ENDBRANCH  29  31
ENDBRANCH   5  29
BRANCH  18  33
ATOM     33  O   UNL     1       2.745  -5.425   0.353  0.00  0.00    +0.000 OA
ATOM     34  H   UNL     1       1.995  -5.699   0.955  0.00  0.00    +0.000 HD
ENDBRANCH  18  33
BRANCH  19  35
ATOM     35  C   UNL     1       3.222  -7.914  -1.046  0.00  0.00    +0.000 C 
ATOM     36  O   UNL     1       4.323  -7.380  -0.701  0.00  0.00    +0.000 OA
BRANCH  35  37
ATOM     37  O   UNL     1       3.142  -9.320  -1.230  0.00  0.00    +0.000 OA
ATOM     38  H   UNL     1       3.951  -9.890  -1.088  0.00  0.00    +0.000 HD
ENDBRANCH  35  37
ENDBRANCH  19  35
BRANCH  27  39
ATOM     39  O   UNL     1      -1.636  -2.006   0.236  0.00  0.00    +0.000 OA
ATOM     40  H   UNL     1      -2.609  -2.029   0.004  0.00  0.00    +0.000 HD
ENDBRANCH  27  39
TORSDOF 6
