
 OpenBabel03132512093D

 82 86  0  0  0  0  0  0  0  0999 V2000
    1.0374    0.0113    0.0921 C   0  0  0  0  0  0  0  0  0  0  0  0
    0.5307   -1.3409   -0.3826 C   0  0  0  0  0  0  0  0  0  0  0  0
    0.7300   -2.3037    0.6873 C   0  0  0  0  0  0  0  0  0  0  0  0
    1.8468   -3.0464    0.6376 C   0  0  0  0  0  0  0  0  0  0  0  0
    2.1208   -4.0672    1.7114 C   0  0  0  0  0  0  0  0  0  0  0  0
    2.5301   -4.2238    3.1669 C   0  0  0  0  0  0  0  0  0  0  0  0
    2.7636   -3.1951    3.8756 O   0  0  0  0  0  0  0  0  0  0  0  0
    2.6516   -5.5197    3.7347 O   0  0  0  0  0  0  0  0  0  0  0  0
    2.5681   -5.3799    1.0650 C   0  0  0  0  0  0  0  0  0  0  0  0
    1.3808   -6.3381    0.9889 C   0  0  0  0  0  0  0  0  0  0  0  0
    1.0160   -6.5812   -0.4769 C   0  0  0  0  0  0  0  0  0  0  0  0
    2.2533   -7.3056   -0.9816 C   0  0  0  0  0  0  0  0  0  0  0  0
   -1.8632   -3.3631   -1.8300 C   0  0  0  0  0  0  0  0  0  0  0  0
   -1.5215   -4.3563   -2.6132 C   0  0  0  0  0  0  0  0  0  0  0  0
   -2.0507   -5.7424   -2.3484 C   0  0  0  0  0  0  0  0  0  0  0  0
   -0.8800   -6.6964   -2.0991 C   0  0  0  0  0  0  0  0  0  0  0  0
    0.3142   -6.2629   -2.9336 C   0  0  0  0  0  0  0  0  0  0  0  0
   -0.1126   -6.3309   -4.3908 C   0  0  0  0  0  0  0  0  0  0  0  0
    0.7331   -4.8274   -2.6074 C   0  0  0  0  0  0  0  0  0  0  0  0
    1.2034   -4.7636   -1.2593 C   0  0  0  0  0  0  0  0  0  0  0  0
    2.3459   -5.5818   -1.0011 C   0  0  0  0  0  0  0  0  0  0  0  0
    2.7448   -5.4247    0.3526 O   0  0  0  0  0  0  0  0  0  0  0  0
    1.9923   -7.0478   -1.2623 C   0  0  0  0  0  0  0  0  0  0  0  0
    0.8954   -7.4874   -0.3062 C   0  0  0  0  0  0  0  0  0  0  0  0
    3.2224   -7.9141   -1.0463 C   0  0  0  0  0  0  0  0  0  0  0  0
    4.3229   -7.3803   -0.7012 O   0  0  0  0  0  0  0  0  0  0  0  0
    3.1420   -9.3198   -1.2302 O   0  0  0  0  0  0  0  0  0  0  0  0
    1.5069   -7.1978   -2.7075 C   0  0  0  0  0  0  0  0  0  0  0  0
    1.0864   -8.6363   -2.9609 C   0  0  0  0  0  0  0  0  0  0  0  0
   -1.1421   -5.4524    0.0420 C   0  0  0  0  0  0  0  0  0  0  0  0
   -0.5050   -6.6653   -0.6164 C   0  0  0  0  0  0  0  0  0  0  0  0
   -1.0067   -7.9308    0.0598 C   0  0  0  0  0  0  0  0  0  0  0  0
   -1.3341   -1.9780   -2.0951 C   0  0  0  0  0  0  0  0  0  0  0  0
   -0.9191   -1.3408   -0.7929 C   0  0  0  0  0  0  0  0  0  0  0  0
   -1.2197    0.1328   -1.0136 C   0  0  0  0  0  0  0  0  0  0  0  0
   -1.6364   -2.0063    0.2361 O   0  0  0  0  0  0  0  0  0  0  0  0
    0.6807    0.1979    1.0835 H   0  0  0  0  0  0  0  0  0  0  0  0
    0.6807    0.7766   -0.5652 H   0  0  0  0  0  0  0  0  0  0  0  0
    2.1074    0.0113    0.0921 H   0  0  0  0  0  0  0  0  0  0  0  0
    1.0866   -1.5975   -1.2601 H   0  0  0  0  0  0  0  0  0  0  0  0
    0.8262   -1.7159    1.5762 H   0  0  0  0  0  0  0  0  0  0  0  0
   -0.1041   -2.9738    0.6782 H   0  0  0  0  0  0  0  0  0  0  0  0
    2.6269   -2.3273    0.7767 H   0  0  0  0  0  0  0  0  0  0  0  0
    1.8253   -3.5747   -0.2927 H   0  0  0  0  0  0  0  0  0  0  0  0
    2.9209   -5.6228    4.6922 H   0  0  0  0  0  0  0  0  0  0  0  0
    2.9348   -5.1860    0.0787 H   0  0  0  0  0  0  0  0  0  0  0  0
    3.3455   -5.8208    1.6532 H   0  0  0  0  0  0  0  0  0  0  0  0
    1.6417   -7.2673    1.4507 H   0  0  0  0  0  0  0  0  0  0  0  0
    0.5432   -5.9096    1.4987 H   0  0  0  0  0  0  0  0  0  0  0  0
    2.0217   -7.8136   -1.8944 H   0  0  0  0  0  0  0  0  0  0  0  0
    3.0353   -6.5966   -1.1565 H   0  0  0  0  0  0  0  0  0  0  0  0
    2.5739   -8.0167   -0.2491 H   0  0  0  0  0  0  0  0  0  0  0  0
   -0.8663   -4.1833   -3.4413 H   0  0  0  0  0  0  0  0  0  0  0  0
   -2.6104   -6.0785   -3.1962 H   0  0  0  0  0  0  0  0  0  0  0  0
   -2.6851   -5.7235   -1.4870 H   0  0  0  0  0  0  0  0  0  0  0  0
   -1.1648   -7.6904   -2.3744 H   0  0  0  0  0  0  0  0  0  0  0  0
   -0.3983   -7.3334   -4.6323 H   0  0  0  0  0  0  0  0  0  0  0  0
   -0.9430   -5.6752   -4.5502 H   0  0  0  0  0  0  0  0  0  0  0  0
    0.7029   -6.0321   -5.0157 H   0  0  0  0  0  0  0  0  0  0  0  0
    1.5141   -4.5236   -3.2727 H   0  0  0  0  0  0  0  0  0  0  0  0
   -0.1074   -4.1754   -2.7233 H   0  0  0  0  0  0  0  0  0  0  0  0
    0.4133   -5.1320   -0.6390 H   0  0  0  0  0  0  0  0  0  0  0  0
    1.4609   -3.7483   -1.0409 H   0  0  0  0  0  0  0  0  0  0  0  0
    3.1481   -5.2880   -1.6454 H   0  0  0  0  0  0  0  0  0  0  0  0
    1.9953   -5.6992    0.9550 H   0  0  0  0  0  0  0  0  0  0  0  0
    0.6496   -8.5120   -0.4924 H   0  0  0  0  0  0  0  0  0  0  0  0
    1.2370   -7.3801    0.7021 H   0  0  0  0  0  0  0  0  0  0  0  0
    0.0275   -6.8797   -0.4554 H   0  0  0  0  0  0  0  0  0  0  0  0
    3.9514   -9.8898   -1.0881 H   0  0  0  0  0  0  0  0  0  0  0  0
    2.2978   -6.9391   -3.3801 H   0  0  0  0  0  0  0  0  0  0  0  0
    1.9215   -9.2856   -2.8000 H   0  0  0  0  0  0  0  0  0  0  0  0
    0.2953   -8.9000   -2.2904 H   0  0  0  0  0  0  0  0  0  0  0  0
   -2.2060   -5.5112   -0.0557 H   0  0  0  0  0  0  0  0  0  0  0  0
   -0.8798   -5.4307    1.0791 H   0  0  0  0  0  0  0  0  0  0  0  0
   -0.7444   -7.9090    1.0969 H   0  0  0  0  0  0  0  0  0  0  0  0
   -2.0706   -7.9896   -0.0378 H   0  0  0  0  0  0  0  0  0  0  0  0
   -0.5583   -8.7846   -0.4036 H   0  0  0  0  0  0  0  0  0  0  0  0
   -1.6251   -1.5129   -3.0137 H   0  0  0  0  0  0  0  0  0  0  0  0
   -2.2529    0.2523   -1.2646 H   0  0  0  0  0  0  0  0  0  0  0  0
   -1.0046    0.6786   -0.1187 H   0  0  0  0  0  0  0  0  0  0  0  0
   -0.6132    0.5048   -1.8127 H   0  0  0  0  0  0  0  0  0  0  0  0
   -2.6087   -2.0292    0.0035 H   0  0  0  0  0  0  0  0  0  0  0  0
  1  2  1  0  0  0  0
  1 37  1  0  0  0  0
  1 38  1  0  0  0  0
  1 39  1  0  0  0  0
  2  3  1  0  0  0  0
  2 34  1  0  0  0  0
  2 40  1  0  0  0  0
  3  4  1  0  0  0  0
  3 41  1  0  0  0  0
  3 42  1  0  0  0  0
  4  5  1  0  0  0  0
  4 43  1  0  0  0  0
  4 44  1  0  0  0  0
  5  6  1  0  0  0  0
  5  9  1  0  0  0  0
  5 33  1  0  0  0  0
  6  7  2  0  0  0  0
  6  8  1  0  0  0  0
  8 45  1  0  0  0  0
  9 10  1  0  0  0  0
  9 46  1  0  0  0  0
  9 47  1  0  0  0  0
 10 11  1  0  0  0  0
 10 48  1  0  0  0  0
 10 49  1  0  0  0  0
 11 12  1  0  0  0  0
 11 13  1  0  0  0  0
 11 31  1  0  0  0  0
 12 50  1  0  0  0  0
 12 51  1  0  0  0  0
 12 52  1  0  0  0  0
 13 14  2  0  0  0  0
 13 33  1  0  0  0  0
 14 15  1  0  0  0  0
 14 53  1  0  0  0  0
 15 16  1  0  0  0  0
 15 54  1  0  0  0  0
 15 55  1  0  0  0  0
 16 17  1  0  0  0  0
 16 31  1  0  0  0  0
 16 56  1  0  0  0  0
 17 18  1  0  0  0  0
 17 19  1  0  0  0  0
 17 28  1  0  0  0  0
 18 57  1  0  0  0  0
 18 58  1  0  0  0  0
 18 59  1  0  0  0  0
 19 20  1  0  0  0  0
 19 60  1  0  0  0  0
 19 61  1  0  0  0  0
 20 21  1  0  0  0  0
 20 62  1  0  0  0  0
 20 63  1  0  0  0  0
 21 22  1  0  0  0  0
 21 23  1  0  0  0  0
 21 64  1  0  0  0  0
 22 65  1  0  0  0  0
 23 24  1  0  0  0  0
 23 25  1  0  0  0  0
 23 28  1  0  0  0  0
 24 66  1  0  0  0  0
 24 67  1  0  0  0  0
 24 68  1  0  0  0  0
 25 26  2  0  0  0  0
 25 27  1  0  0  0  0
 27 69  1  0  0  0  0
 28 29  1  0  0  0  0
 28 70  1  0  0  0  0
 29 30  1  0  0  0  0
 29 71  1  0  0  0  0
 29 72  1  0  0  0  0
 30 31  1  0  0  0  0
 30 73  1  0  0  0  0
 30 74  1  0  0  0  0
 31 32  1  0  0  0  0
 32 75  1  0  0  0  0
 32 76  1  0  0  0  0
 32 77  1  0  0  0  0
 33 34  1  0  0  0  0
 33 78  1  0  0  0  0
 34 35  1  0  0  0  0
 34 36  1  0  0  0  0
 35 79  1  0  0  0  0
 35 80  1  0  0  0  0
 35 81  1  0  0  0  0
 36 82  1  0  0  0  0
M  END
