
 OpenBabel03132512083D

 49 53  0  0  0  0  0  0  0  0999 V2000
    0.9049   -0.0048    0.0307 C   0  0  0  0  0  0  0  0  0  0  0  0
    0.3983   -0.7766    1.2381 C   0  0  0  0  0  0  0  0  0  0  0  0
    1.3213   -0.7072    2.1251 C   0  0  0  0  0  0  0  0  0  0  0  0
    1.8935   -1.7711    2.6473 C   0  0  0  0  0  0  0  0  0  0  0  0
    1.4898   -3.0434    2.2271 C   0  0  0  0  0  0  0  0  0  0  0  0
    1.8522   -4.3125    2.5189 O   0  0  0  0  0  0  0  0  0  0  0  0
    1.1456   -5.1439    1.8061 C   0  0  0  0  0  0  0  0  0  0  0  0
    0.2826   -4.4587    1.0088 C   0  0  0  0  0  0  0  0  0  0  0  0
    0.4809   -3.1195    1.2478 C   0  0  0  0  0  0  0  0  0  0  0  0
   -0.0593   -1.9262    0.7690 C   0  0  0  0  0  0  0  0  0  0  0  0
   -0.7010    2.0095    0.1474 C   0  0  0  0  0  0  0  0  0  0  0  0
    0.2194    1.9163    1.3535 C   0  0  0  0  0  0  0  0  0  0  0  0
   -0.4919    1.1816    2.4781 C   0  0  0  0  0  0  0  0  0  0  0  0
   -4.5576    0.0325    4.2742 C   0  0  0  0  0  0  0  0  0  0  0  0
   -3.2618    0.1211    3.4846 C   0  0  0  0  0  0  0  0  0  0  0  0
   -2.5157   -1.2217    3.6066 C   0  0  0  0  0  0  0  0  0  0  0  0
   -1.0257   -1.1135    3.2303 C   0  0  0  0  0  0  0  0  0  0  0  0
   -0.8014   -0.2564    2.0131 C   0  0  0  0  0  0  0  0  0  0  0  0
   -2.4545    1.2776    4.0095 C   0  0  0  0  0  0  0  0  0  0  0  0
   -3.3120    2.2340    4.6149 O   0  0  0  0  0  0  0  0  0  0  0  0
   -1.4624    0.7805    5.0483 C   0  0  0  0  0  0  0  0  0  0  0  0
   -0.6040   -0.1851    4.4590 O   0  0  0  0  0  0  0  0  0  0  0  0
   -1.6956    1.9199    2.8314 C   0  0  0  0  0  0  0  0  0  0  0  0
    0.5483    1.0030    0.0762 H   0  0  0  0  0  0  0  0  0  0  0  0
    0.5483   -0.4693   -0.8649 H   0  0  0  0  0  0  0  0  0  0  0  0
    1.9749   -0.0048    0.0307 H   0  0  0  0  0  0  0  0  0  0  0  0
    1.6408    0.2590    2.4556 H   0  0  0  0  0  0  0  0  0  0  0  0
    2.6602   -1.6643    3.3861 H   0  0  0  0  0  0  0  0  0  0  0  0
    1.2318   -6.2098    1.8427 H   0  0  0  0  0  0  0  0  0  0  0  0
   -0.4203   -4.8833    0.3228 H   0  0  0  0  0  0  0  0  0  0  0  0
    0.0953   -1.9156   -0.2897 H   0  0  0  0  0  0  0  0  0  0  0  0
   -0.2002    2.5267   -0.6442 H   0  0  0  0  0  0  0  0  0  0  0  0
   -0.9620    1.0246   -0.1791 H   0  0  0  0  0  0  0  0  0  0  0  0
    0.4804    2.9012    1.6800 H   0  0  0  0  0  0  0  0  0  0  0  0
    1.1070    1.3828    1.0844 H   0  0  0  0  0  0  0  0  0  0  0  0
   -5.1086    0.9424    4.1586 H   0  0  0  0  0  0  0  0  0  0  0  0
   -5.1417   -0.7868    3.9104 H   0  0  0  0  0  0  0  0  0  0  0  0
   -3.4462    0.2979    2.4455 H   0  0  0  0  0  0  0  0  0  0  0  0
   -2.9716   -1.9067    2.9226 H   0  0  0  0  0  0  0  0  0  0  0  0
   -2.5889   -1.5628    4.6181 H   0  0  0  0  0  0  0  0  0  0  0  0
   -0.6741   -2.0986    3.0047 H   0  0  0  0  0  0  0  0  0  0  0  0
   -0.4935   -0.6861    4.0543 H   0  0  0  0  0  0  0  0  0  0  0  0
   -1.6722   -0.2778    1.3917 H   0  0  0  0  0  0  0  0  0  0  0  0
   -3.9692    2.5676    3.9390 H   0  0  0  0  0  0  0  0  0  0  0  0
   -0.8803    1.6032    5.4078 H   0  0  0  0  0  0  0  0  0  0  0  0
   -1.9930    0.3356    5.8640 H   0  0  0  0  0  0  0  0  0  0  0  0
   -1.1481   -0.9539    4.1230 H   0  0  0  0  0  0  0  0  0  0  0  0
   -1.3989    2.9031    3.1317 H   0  0  0  0  0  0  0  0  0  0  0  0
   -2.3434    1.9487    1.9802 H   0  0  0  0  0  0  0  0  0  0  0  0
  1  2  1  0  0  0  0
  1 24  1  0  0  0  0
  1 25  1  0  0  0  0
  1 26  1  0  0  0  0
  2  3  1  0  0  0  0
  2 10  1  0  0  0  0
  2 18  1  0  0  0  0
  3  4  2  0  0  0  0
  3 27  1  0  0  0  0
  4  5  1  0  0  0  0
  4 28  1  0  0  0  0
  5  6  1  0  0  0  0
  5  9  2  0  0  0  0
  6  7  1  0  0  0  0
  7  8  2  0  0  0  0
  7 29  1  0  0  0  0
  8  9  1  0  0  0  0
  8 30  1  0  0  0  0
  9 10  1  0  0  0  0
 10 11  1  0  0  0  0
 10 31  1  0  0  0  0
 11 12  1  0  0  0  0
 11 32  1  0  0  0  0
 11 33  1  0  0  0  0
 12 13  1  0  0  0  0
 12 34  1  0  0  0  0
 12 35  1  0  0  0  0
 13 14  1  0  0  0  0
 13 18  1  0  0  0  0
 13 23  1  0  0  0  0
 14 15  1  0  0  0  0
 14 36  1  0  0  0  0
 14 37  1  0  0  0  0
 15 16  1  0  0  0  0
 15 19  1  0  0  0  0
 15 38  1  0  0  0  0
 16 17  1  0  0  0  0
 16 39  1  0  0  0  0
 16 40  1  0  0  0  0
 17 18  1  0  0  0  0
 17 41  1  0  0  0  0
 17 42  1  0  0  0  0
 18 43  1  0  0  0  0
 19 20  1  0  0  0  0
 19 21  1  0  0  0  0
 19 23  1  0  0  0  0
 20 44  1  0  0  0  0
 21 22  1  0  0  0  0
 21 45  1  0  0  0  0
 21 46  1  0  0  0  0
 22 47  1  0  0  0  0
 23 48  1  0  0  0  0
 23 49  1  0  0  0  0
M  END
