REMARK  Name = 
REMARK  4 active torsions:
REMARK  status: ('A' for Active; 'I' for Inactive)
REMARK    1  A    between atoms: C_1  and  C_2
REMARK    2  A    between atoms: C_19  and  O_20
REMARK    3  A    between atoms: C_19  and  C_21
REMARK    4  A    between atoms: C_21  and  O_22
REMARK                            x       y       z     vdW  Elec       q    Type
REMARK                         _______ _______ _______ _____ _____    ______ ____
ROOT
ATOM      1  C   UNL     1       0.905  -0.005   0.031  0.00  0.00    +0.000 C 
ATOM      2  C   UNL     1       0.398  -0.777   1.238  0.00  0.00    +0.000 C 
ATOM      3  C   UNL     1       1.321  -0.707   2.125  0.00  0.00    +0.000 C 
ATOM      4  C   UNL     1       1.893  -1.771   2.647  0.00  0.00    +0.000 C 
ATOM      5  C   UNL     1       1.490  -3.043   2.227  0.00  0.00    +0.000 A 
ATOM      6  O   UNL     1       1.852  -4.312   2.519  0.00  0.00    +0.000 OA
ATOM      7  C   UNL     1       1.146  -5.144   1.806  0.00  0.00    +0.000 A 
ATOM      8  C   UNL     1       0.283  -4.459   1.009  0.00  0.00    +0.000 A 
ATOM      9  C   UNL     1       0.481  -3.119   1.248  0.00  0.00    +0.000 A 
ATOM     10  C   UNL     1      -0.059  -1.926   0.769  0.00  0.00    +0.000 C 
ATOM     11  C   UNL     1      -0.701   2.010   0.147  0.00  0.00    +0.000 C 
ATOM     12  C   UNL     1       0.219   1.916   1.353  0.00  0.00    +0.000 C 
ATOM     13  C   UNL     1      -0.492   1.182   2.478  0.00  0.00    +0.000 C 
ATOM     14  C   UNL     1      -4.558   0.033   4.274  0.00  0.00    +0.000 C 
ATOM     15  C   UNL     1      -3.262   0.121   3.485  0.00  0.00    +0.000 C 
ATOM     16  C   UNL     1      -2.516  -1.222   3.607  0.00  0.00    +0.000 C 
ATOM     17  C   UNL     1      -1.026  -1.113   3.230  0.00  0.00    +0.000 C 
ATOM     18  C   UNL     1      -0.801  -0.256   2.013  0.00  0.00    +0.000 C 
ATOM     19  C   UNL     1      -2.454   1.278   4.010  0.00  0.00    +0.000 C 
ATOM     20  C   UNL     1      -1.696   1.920   2.831  0.00  0.00    +0.000 C 
ENDROOT
BRANCH  19  21
ATOM     21  O   UNL     1      -3.312   2.234   4.615  0.00  0.00    +0.000 OA
ATOM     22  H   UNL     1      -3.969   2.568   3.939  0.00  0.00    +0.000 HD
ENDBRANCH  19  21
BRANCH  19  23
ATOM     23  C   UNL     1      -1.462   0.780   5.048  0.00  0.00    +0.000 C 
BRANCH  23  24
ATOM     24  O   UNL     1      -0.604  -0.185   4.459  0.00  0.00    +0.000 OA
ATOM     25  H   UNL     1      -1.148  -0.954   4.123  0.00  0.00    +0.000 HD
ENDBRANCH  23  24
ENDBRANCH  19  23
TORSDOF 3
