REMARK  Name = 
REMARK  4 active torsions:
REMARK  status: ('A' for Active; 'I' for Inactive)
REMARK    1  A    between atoms: C_1  and  C_2
REMARK    2  A    between atoms: C_19  and  O_20
REMARK    3  A    between atoms: C_19  and  C_21
REMARK    4  A    between atoms: C_21  and  O_22
REMARK                            x       y       z     vdW  Elec       q    Type
REMARK                         _______ _______ _______ _____ _____    ______ ____
ROOT
ATOM      1  C   UNL     1       1.082  -0.041  -0.040  0.00  0.00    +0.000 C 
ATOM      2  C   UNL     1       0.575  -0.312   1.367  0.00  0.00    +0.000 C 
ATOM      3  C   UNL     1       1.245   0.466   2.134  0.00  0.00    +0.000 C 
ATOM      4  C   UNL     1       1.988   0.025   3.127  0.00  0.00    +0.000 C 
ATOM      5  C   UNL     1       2.062  -1.351   3.371  0.00  0.00    +0.000 A 
ATOM      6  O   UNL     1       2.713  -2.137   4.257  0.00  0.00    +0.000 OA
ATOM      7  C   UNL     1       2.433  -3.388   4.021  0.00  0.00    +0.000 A 
ATOM      8  C   UNL     1       1.582  -3.484   2.964  0.00  0.00    +0.000 A 
ATOM      9  C   UNL     1       1.332  -2.206   2.524  0.00  0.00    +0.000 A 
ATOM     10  C   UNL     1       0.573  -1.628   1.506  0.00  0.00    +0.000 C 
ATOM     11  C   UNL     1      -1.032   1.112  -0.989  0.00  0.00    +0.000 C 
ATOM     12  C   UNL     1      -0.422   1.907   0.153  0.00  0.00    +0.000 C 
ATOM     13  C   UNL     1      -1.110   1.533   1.456  0.00  0.00    +0.000 C 
ATOM     14  C   UNL     1      -4.930  -0.141   3.375  0.00  0.00    +0.000 C 
ATOM     15  C   UNL     1      -3.580   0.070   2.710  0.00  0.00    +0.000 C 
ATOM     16  C   UNL     1      -2.509  -0.696   3.511  0.00  0.00    +0.000 C 
ATOM     17  C   UNL     1      -1.077  -0.215   3.206  0.00  0.00    +0.000 C 
ATOM     18  C   UNL     1      -0.857   0.037   1.738  0.00  0.00    +0.000 C 
ATOM     19  C   UNL     1      -3.301   1.548   2.643  0.00  0.00    +0.000 C 
ATOM     20  C   UNL     1      -2.528   1.841   1.341  0.00  0.00    +0.000 C 
ENDROOT
BRANCH  19  21
ATOM     21  O   UNL     1      -4.521   2.274   2.659  0.00  0.00    +0.000 OA
ATOM     22  H   UNL     1      -5.079   2.006   1.874  0.00  0.00    +0.000 HD
ENDBRANCH  19  21
BRANCH  19  23
ATOM     23  C   UNL     1      -2.464   1.966   3.841  0.00  0.00    +0.000 C 
BRANCH  23  24
ATOM     24  O   UNL     1      -1.244   1.240   3.843  0.00  0.00    +0.000 OA
ATOM     25  H   UNL     1      -1.439   0.261   3.899  0.00  0.00    +0.000 HD
ENDBRANCH  23  24
ENDBRANCH  19  23
TORSDOF 3
