
 OpenBabel03132512083D

 74 75  0  0  0  0  0  0  0  0999 V2000
    1.0156    0.0908    0.0388 C   0  0  0  0  0  0  0  0  0  0  0  0
    0.3354    0.7289    1.0292 C   0  0  0  0  0  0  0  0  0  0  0  0
   -1.1846    0.7289    1.0292 C   0  0  0  0  0  0  0  0  0  0  0  0
   -1.6913    0.0737    2.3037 C   0  0  0  0  0  0  0  0  0  0  0  0
   -1.6913    2.1603    0.9594 C   0  0  0  0  0  0  0  0  0  0  0  0
   -1.6913   -0.0473   -0.1755 C   0  0  0  0  0  0  0  0  0  0  0  0
   -1.3975   -1.4145   -0.2186 C   0  0  0  0  0  0  0  0  0  0  0  0
   -1.7192   -2.1343   -1.3734 C   0  0  0  0  0  0  0  0  0  0  0  0
   -1.4095   -3.6201   -1.4565 C   0  0  0  0  0  0  0  0  0  0  0  0
    0.0866   -3.8355   -1.2960 C   0  0  0  0  0  0  0  0  0  0  0  0
    0.5337   -3.2994    0.0542 C   0  0  0  0  0  0  0  0  0  0  0  0
   -0.2055   -4.0338    1.1609 C   0  0  0  0  0  0  0  0  0  0  0  0
   -0.9871   -3.3857    2.1324 C   0  0  0  0  0  0  0  0  0  0  0  0
   -1.5539   -4.0852    3.1848 C   0  0  0  0  0  0  0  0  0  0  0  0
   -2.3099   -3.4811    4.1496 O   0  0  0  0  0  0  0  0  0  0  0  0
   -1.3363   -5.4608    3.2987 C   0  0  0  0  0  0  0  0  0  0  0  0
   -1.9031   -6.1984    4.2902 O   0  0  0  0  0  0  0  0  0  0  0  0
   -0.5539   -6.1021    2.3546 C   0  0  0  0  0  0  0  0  0  0  0  0
   -0.3042   -7.5959    2.4838 C   0  0  0  0  0  0  0  0  0  0  0  0
    0.3912   -7.8809    3.8050 C   0  0  0  0  0  0  0  0  0  0  0  0
   -0.1974   -8.6958    4.7216 C   0  0  0  0  0  0  0  0  0  0  0  0
    0.4980   -8.9808    6.0428 C   0  0  0  0  0  0  0  0  0  0  0  0
   -1.5505   -9.3213    4.4246 C   0  0  0  0  0  0  0  0  0  0  0  0
    0.0055   -5.4103    1.2956 C   0  0  0  0  0  0  0  0  0  0  0  0
    0.8535   -6.1490    0.2732 C   0  0  0  0  0  0  0  0  0  0  0  0
    2.0453   -6.7862    0.9689 C   0  0  0  0  0  0  0  0  0  0  0  0
    2.2181   -8.1349    0.9239 C   0  0  0  0  0  0  0  0  0  0  0  0
    3.4098   -8.7721    1.6197 C   0  0  0  0  0  0  0  0  0  0  0  0
    1.2193   -9.0045    0.1779 C   0  0  0  0  0  0  0  0  0  0  0  0
   -2.3162   -1.4946   -2.4329 C   0  0  0  0  0  0  0  0  0  0  0  0
   -2.6860   -2.2089   -3.5680 O   0  0  0  0  0  0  0  0  0  0  0  0
   -2.5916   -0.1392   -2.4044 C   0  0  0  0  0  0  0  0  0  0  0  0
   -2.2668    0.5676   -1.2514 C   0  0  0  0  0  0  0  0  0  0  0  0
   -2.5090    1.9241   -1.1891 O   0  0  0  0  0  0  0  0  0  0  0  0
    0.4806   -0.4111   -0.7401 H   0  0  0  0  0  0  0  0  0  0  0  0
    2.0856    0.0908    0.0388 H   0  0  0  0  0  0  0  0  0  0  0  0
    0.8704    1.2308    1.8082 H   0  0  0  0  0  0  0  0  0  0  0  0
   -1.3346    0.6201    3.1518 H   0  0  0  0  0  0  0  0  0  0  0  0
   -2.7613    0.0737    2.3037 H   0  0  0  0  0  0  0  0  0  0  0  0
   -1.3346   -0.9339    2.3529 H   0  0  0  0  0  0  0  0  0  0  0  0
   -1.3346    2.6215    0.0622 H   0  0  0  0  0  0  0  0  0  0  0  0
   -2.7613    2.1603    0.9594 H   0  0  0  0  0  0  0  0  0  0  0  0
   -1.3346    2.7067    1.8074 H   0  0  0  0  0  0  0  0  0  0  0  0
   -0.9358   -1.8998    0.6157 H   0  0  0  0  0  0  0  0  0  0  0  0
   -1.9298   -4.1370   -0.6775 H   0  0  0  0  0  0  0  0  0  0  0  0
   -1.7242   -3.9974   -2.4070 H   0  0  0  0  0  0  0  0  0  0  0  0
    0.3047   -4.8814   -1.3545 H   0  0  0  0  0  0  0  0  0  0  0  0
    0.6070   -3.3185   -2.0750 H   0  0  0  0  0  0  0  0  0  0  0  0
    1.5869   -3.4511    0.1672 H   0  0  0  0  0  0  0  0  0  0  0  0
    0.3156   -2.2535    0.1127 H   0  0  0  0  0  0  0  0  0  0  0  0
   -1.1476   -2.3305    2.0575 H   0  0  0  0  0  0  0  0  0  0  0  0
   -2.4879   -2.4982    4.1028 H   0  0  0  0  0  0  0  0  0  0  0  0
   -2.4719   -5.7533    4.9818 H   0  0  0  0  0  0  0  0  0  0  0  0
   -1.2379   -8.1176    2.4524 H   0  0  0  0  0  0  0  0  0  0  0  0
    0.3156   -7.9251    1.6762 H   0  0  0  0  0  0  0  0  0  0  0  0
    1.3437   -7.4406    4.0141 H   0  0  0  0  0  0  0  0  0  0  0  0
   -0.1219   -8.6516    6.8504 H   0  0  0  0  0  0  0  0  0  0  0  0
    0.6737  -10.0324    6.1338 H   0  0  0  0  0  0  0  0  0  0  0  0
    1.4317   -8.4591    6.0742 H   0  0  0  0  0  0  0  0  0  0  0  0
   -2.2731   -8.5486    4.2638 H   0  0  0  0  0  0  0  0  0  0  0  0
   -1.4775   -9.9294    3.5472 H   0  0  0  0  0  0  0  0  0  0  0  0
   -1.8536   -9.9262    5.2535 H   0  0  0  0  0  0  0  0  0  0  0  0
    0.2651   -6.9102   -0.1952 H   0  0  0  0  0  0  0  0  0  0  0  0
    1.2000   -5.4594   -0.4679 H   0  0  0  0  0  0  0  0  0  0  0  0
    2.7484   -6.1740    1.4941 H   0  0  0  0  0  0  0  0  0  0  0  0
    3.0634   -9.4617    2.3608 H   0  0  0  0  0  0  0  0  0  0  0  0
    4.0069   -9.2921    0.8999 H   0  0  0  0  0  0  0  0  0  0  0  0
    3.9983   -8.0109    2.0880 H   0  0  0  0  0  0  0  0  0  0  0  0
    0.2479   -8.8826    0.6097 H   0  0  0  0  0  0  0  0  0  0  0  0
    1.1913   -8.7130   -0.8512 H   0  0  0  0  0  0  0  0  0  0  0  0
    1.5155  -10.0302    0.2502 H   0  0  0  0  0  0  0  0  0  0  0  0
   -2.5024   -3.1904   -3.6230 H   0  0  0  0  0  0  0  0  0  0  0  0
   -3.0405    0.3502   -3.2434 H   0  0  0  0  0  0  0  0  0  0  0  0
   -2.2770    2.4359   -0.3619 H   0  0  0  0  0  0  0  0  0  0  0  0
  1  2  2  0  0  0  0
  1 35  1  0  0  0  0
  1 36  1  0  0  0  0
  2  3  1  0  0  0  0
  2 37  1  0  0  0  0
  3  4  1  0  0  0  0
  3  5  1  0  0  0  0
  3  6  1  0  0  0  0
  4 38  1  0  0  0  0
  4 39  1  0  0  0  0
  4 40  1  0  0  0  0
  5 41  1  0  0  0  0
  5 42  1  0  0  0  0
  5 43  1  0  0  0  0
  6  7  1  0  0  0  0
  6 33  2  0  0  0  0
  7  8  2  0  0  0  0
  7 44  1  0  0  0  0
  8  9  1  0  0  0  0
  8 30  1  0  0  0  0
  9 10  1  0  0  0  0
  9 45  1  0  0  0  0
  9 46  1  0  0  0  0
 10 11  1  0  0  0  0
 10 47  1  0  0  0  0
 10 48  1  0  0  0  0
 11 12  1  0  0  0  0
 11 49  1  0  0  0  0
 11 50  1  0  0  0  0
 12 13  1  0  0  0  0
 12 24  2  0  0  0  0
 13 14  2  0  0  0  0
 13 51  1  0  0  0  0
 14 15  1  0  0  0  0
 14 16  1  0  0  0  0
 15 52  1  0  0  0  0
 16 17  1  0  0  0  0
 16 18  2  0  0  0  0
 17 53  1  0  0  0  0
 18 19  1  0  0  0  0
 18 24  1  0  0  0  0
 19 20  1  0  0  0  0
 19 54  1  0  0  0  0
 19 55  1  0  0  0  0
 20 21  2  0  0  0  0
 20 56  1  0  0  0  0
 21 22  1  0  0  0  0
 21 23  1  0  0  0  0
 22 57  1  0  0  0  0
 22 58  1  0  0  0  0
 22 59  1  0  0  0  0
 23 60  1  0  0  0  0
 23 61  1  0  0  0  0
 23 62  1  0  0  0  0
 24 25  1  0  0  0  0
 25 26  1  0  0  0  0
 25 63  1  0  0  0  0
 25 64  1  0  0  0  0
 26 27  2  0  0  0  0
 26 65  1  0  0  0  0
 27 28  1  0  0  0  0
 27 29  1  0  0  0  0
 28 66  1  0  0  0  0
 28 67  1  0  0  0  0
 28 68  1  0  0  0  0
 29 69  1  0  0  0  0
 29 70  1  0  0  0  0
 29 71  1  0  0  0  0
 30 31  1  0  0  0  0
 30 32  2  0  0  0  0
 31 72  1  0  0  0  0
 32 33  1  0  0  0  0
 32 73  1  0  0  0  0
 33 34  1  0  0  0  0
 34 74  1  0  0  0  0
M  END
