
 OpenBabel03132514253D

 74 75  0  0  0  0  0  0  0  0999 V2000
    0.9234   -0.0089    0.0636 C   0  0  0  0  0  0  0  0  0  0  0  0
    0.2432   -1.1662   -0.1571 C   0  0  0  0  0  0  0  0  0  0  0  0
   -1.2768   -1.1662   -0.1571 C   0  0  0  0  0  0  0  0  0  0  0  0
   -1.7835   -1.6375   -1.5105 C   0  0  0  0  0  0  0  0  0  0  0  0
   -1.7835   -2.1026    0.9277 C   0  0  0  0  0  0  0  0  0  0  0  0
   -1.7835    0.2415    0.1114 C   0  0  0  0  0  0  0  0  0  0  0  0
   -2.9592    0.4709    0.8344 C   0  0  0  0  0  0  0  0  0  0  0  0
   -3.3473    1.7908    1.0841 C   0  0  0  0  0  0  0  0  0  0  0  0
   -4.6216    2.0764    1.8619 C   0  0  0  0  0  0  0  0  0  0  0  0
   -5.8094    1.4789    1.1253 C   0  0  0  0  0  0  0  0  0  0  0  0
   -5.6213   -0.0238    0.9953 C   0  0  0  0  0  0  0  0  0  0  0  0
   -5.5196   -0.6433    2.3795 C   0  0  0  0  0  0  0  0  0  0  0  0
   -5.7319   -2.0210    2.5575 C   0  0  0  0  0  0  0  0  0  0  0  0
   -5.6966   -2.5985    3.8158 C   0  0  0  0  0  0  0  0  0  0  0  0
   -5.9091   -3.9327    4.0210 O   0  0  0  0  0  0  0  0  0  0  0  0
   -5.4609   -1.7996    4.9378 C   0  0  0  0  0  0  0  0  0  0  0  0
   -5.3771   -2.3247    6.1891 O   0  0  0  0  0  0  0  0  0  0  0  0
   -5.2676   -0.4396    4.7710 C   0  0  0  0  0  0  0  0  0  0  0  0
   -5.0249    0.4338    5.9911 C   0  0  0  0  0  0  0  0  0  0  0  0
   -6.2164    0.3356    6.9297 C   0  0  0  0  0  0  0  0  0  0  0  0
   -6.0465   -0.1236    8.1989 C   0  0  0  0  0  0  0  0  0  0  0  0
   -7.2381   -0.2218    9.1375 C   0  0  0  0  0  0  0  0  0  0  0  0
   -4.6651   -0.5385    8.6785 C   0  0  0  0  0  0  0  0  0  0  0  0
   -5.2910    0.1404    3.5157 C   0  0  0  0  0  0  0  0  0  0  0  0
   -5.0673    1.6368    3.3697 C   0  0  0  0  0  0  0  0  0  0  0  0
   -6.1390    2.3872    4.1435 C   0  0  0  0  0  0  0  0  0  0  0  0
   -5.7862    3.2274    5.1535 C   0  0  0  0  0  0  0  0  0  0  0  0
   -6.8579    3.9778    5.9273 C   0  0  0  0  0  0  0  0  0  0  0  0
   -4.3202    3.4159    5.5083 C   0  0  0  0  0  0  0  0  0  0  0  0
   -2.5734    2.8289    0.6243 C   0  0  0  0  0  0  0  0  0  0  0  0
   -2.9220    4.1455    0.9082 O   0  0  0  0  0  0  0  0  0  0  0  0
   -1.4202    2.6095   -0.1078 C   0  0  0  0  0  0  0  0  0  0  0  0
   -1.0437    1.2929   -0.3514 C   0  0  0  0  0  0  0  0  0  0  0  0
    0.0900    1.0312   -1.0922 O   0  0  0  0  0  0  0  0  0  0  0  0
    0.3884    0.9013    0.2373 H   0  0  0  0  0  0  0  0  0  0  0  0
    1.9934   -0.0089    0.0636 H   0  0  0  0  0  0  0  0  0  0  0  0
    0.7782   -2.0764   -0.3308 H   0  0  0  0  0  0  0  0  0  0  0  0
   -1.4268   -2.6284   -1.6995 H   0  0  0  0  0  0  0  0  0  0  0  0
   -2.8535   -1.6375   -1.5105 H   0  0  0  0  0  0  0  0  0  0  0  0
   -1.4268   -0.9783   -2.2741 H   0  0  0  0  0  0  0  0  0  0  0  0
   -1.4268   -1.7708    1.8804 H   0  0  0  0  0  0  0  0  0  0  0  0
   -2.8535   -2.1026    0.9277 H   0  0  0  0  0  0  0  0  0  0  0  0
   -1.4268   -3.0935    0.7387 H   0  0  0  0  0  0  0  0  0  0  0  0
   -3.5498   -0.3478    1.1892 H   0  0  0  0  0  0  0  0  0  0  0  0
   -4.5500    1.6403    2.8363 H   0  0  0  0  0  0  0  0  0  0  0  0
   -4.7540    3.1342    1.9534 H   0  0  0  0  0  0  0  0  0  0  0  0
   -6.7064    1.6800    1.6729 H   0  0  0  0  0  0  0  0  0  0  0  0
   -5.8810    1.9151    0.1509 H   0  0  0  0  0  0  0  0  0  0  0  0
   -6.4574   -0.4443    0.4768 H   0  0  0  0  0  0  0  0  0  0  0  0
   -4.7242   -0.2248    0.4478 H   0  0  0  0  0  0  0  0  0  0  0  0
   -5.9248   -2.6363    1.7036 H   0  0  0  0  0  0  0  0  0  0  0  0
   -6.0811   -4.5371    3.2431 H   0  0  0  0  0  0  0  0  0  0  0  0
   -5.5137   -3.3052    6.3301 H   0  0  0  0  0  0  0  0  0  0  0  0
   -4.1432    0.1012    6.4980 H   0  0  0  0  0  0  0  0  0  0  0  0
   -4.8968    1.4502    5.6823 H   0  0  0  0  0  0  0  0  0  0  0  0
   -7.1889    0.6276    6.5921 H   0  0  0  0  0  0  0  0  0  0  0  0
   -7.3661   -1.2382    9.4463 H   0  0  0  0  0  0  0  0  0  0  0  0
   -7.0672    0.3931    9.9964 H   0  0  0  0  0  0  0  0  0  0  0  0
   -8.1198    0.1108    8.6306 H   0  0  0  0  0  0  0  0  0  0  0  0
   -4.2985   -1.3343    8.0644 H   0  0  0  0  0  0  0  0  0  0  0  0
   -3.9996    0.2969    8.6146 H   0  0  0  0  0  0  0  0  0  0  0  0
   -4.7248   -0.8700    9.6941 H   0  0  0  0  0  0  0  0  0  0  0  0
   -4.1030    1.8926    3.7565 H   0  0  0  0  0  0  0  0  0  0  0  0
   -5.1196    1.9060    2.3355 H   0  0  0  0  0  0  0  0  0  0  0  0
   -7.1710    2.2545    3.8937 H   0  0  0  0  0  0  0  0  0  0  0  0
   -6.8056    3.7086    6.9615 H   0  0  0  0  0  0  0  0  0  0  0  0
   -6.7004    5.0312    5.8245 H   0  0  0  0  0  0  0  0  0  0  0  0
   -7.8222    3.7220    5.5404 H   0  0  0  0  0  0  0  0  0  0  0  0
   -3.8990    2.4751    5.7956 H   0  0  0  0  0  0  0  0  0  0  0  0
   -3.7939    3.7977    4.6586 H   0  0  0  0  0  0  0  0  0  0  0  0
   -4.2358    4.1074    6.3204 H   0  0  0  0  0  0  0  0  0  0  0  0
   -3.7490    4.3412    1.4352 H   0  0  0  0  0  0  0  0  0  0  0  0
   -0.8362    3.4273   -0.4753 H   0  0  0  0  0  0  0  0  0  0  0  0
    0.3642    0.0860   -1.2696 H   0  0  0  0  0  0  0  0  0  0  0  0
  1  2  2  0  0  0  0
  1 35  1  0  0  0  0
  1 36  1  0  0  0  0
  2  3  1  0  0  0  0
  2 37  1  0  0  0  0
  3  4  1  0  0  0  0
  3  5  1  0  0  0  0
  3  6  1  0  0  0  0
  4 38  1  0  0  0  0
  4 39  1  0  0  0  0
  4 40  1  0  0  0  0
  5 41  1  0  0  0  0
  5 42  1  0  0  0  0
  5 43  1  0  0  0  0
  6  7  1  0  0  0  0
  6 33  2  0  0  0  0
  7  8  2  0  0  0  0
  7 44  1  0  0  0  0
  8  9  1  0  0  0  0
  8 30  1  0  0  0  0
  9 10  1  0  0  0  0
  9 45  1  0  0  0  0
  9 46  1  0  0  0  0
 10 11  1  0  0  0  0
 10 47  1  0  0  0  0
 10 48  1  0  0  0  0
 11 12  1  0  0  0  0
 11 49  1  0  0  0  0
 11 50  1  0  0  0  0
 12 13  1  0  0  0  0
 12 24  2  0  0  0  0
 13 14  2  0  0  0  0
 13 51  1  0  0  0  0
 14 15  1  0  0  0  0
 14 16  1  0  0  0  0
 15 52  1  0  0  0  0
 16 17  1  0  0  0  0
 16 18  2  0  0  0  0
 17 53  1  0  0  0  0
 18 19  1  0  0  0  0
 18 24  1  0  0  0  0
 19 20  1  0  0  0  0
 19 54  1  0  0  0  0
 19 55  1  0  0  0  0
 20 21  2  0  0  0  0
 20 56  1  0  0  0  0
 21 22  1  0  0  0  0
 21 23  1  0  0  0  0
 22 57  1  0  0  0  0
 22 58  1  0  0  0  0
 22 59  1  0  0  0  0
 23 60  1  0  0  0  0
 23 61  1  0  0  0  0
 23 62  1  0  0  0  0
 24 25  1  0  0  0  0
 25 26  1  0  0  0  0
 25 63  1  0  0  0  0
 25 64  1  0  0  0  0
 26 27  2  0  0  0  0
 26 65  1  0  0  0  0
 27 28  1  0  0  0  0
 27 29  1  0  0  0  0
 28 66  1  0  0  0  0
 28 67  1  0  0  0  0
 28 68  1  0  0  0  0
 29 69  1  0  0  0  0
 29 70  1  0  0  0  0
 29 71  1  0  0  0  0
 30 31  1  0  0  0  0
 30 32  2  0  0  0  0
 31 72  1  0  0  0  0
 32 33  1  0  0  0  0
 32 73  1  0  0  0  0
 33 34  1  0  0  0  0
 34 74  1  0  0  0  0
M  END
