REMARK  Name = 
REMARK  20 active torsions:
REMARK  status: ('A' for Active; 'I' for Inactive)
REMARK    1  A    between atoms: C_2  and  C_3
REMARK    2  A    between atoms: C_3  and  C_4
REMARK    3  A    between atoms: C_3  and  C_5
REMARK    4  A    between atoms: C_3  and  C_6
REMARK    5  A    between atoms: C_8  and  C_9
REMARK    6  A    between atoms: C_9  and  C_10
REMARK    7  A    between atoms: C_10  and  C_11
REMARK    8  A    between atoms: C_11  and  C_12
REMARK    9  A    between atoms: C_14  and  O_15
REMARK   10  A    between atoms: C_16  and  O_17
REMARK   11  A    between atoms: C_18  and  C_19
REMARK   12  A    between atoms: C_19  and  C_20
REMARK   13  A    between atoms: C_21  and  C_22
REMARK   14  A    between atoms: C_21  and  C_23
REMARK   15  A    between atoms: C_24  and  C_25
REMARK   16  A    between atoms: C_25  and  C_26
REMARK   17  A    between atoms: C_27  and  C_28
REMARK   18  A    between atoms: C_27  and  C_29
REMARK   19  A    between atoms: C_30  and  O_31
REMARK   20  A    between atoms: C_33  and  O_34
REMARK                            x       y       z     vdW  Elec       q    Type
REMARK                         _______ _______ _______ _____ _____    ______ ____
ROOT
ATOM      1  C   UNL     1      -0.205  -4.034   1.161  0.00  0.00    +0.000 A 
ATOM      2  C   UNL     1      -0.987  -3.386   2.132  0.00  0.00    +0.000 A 
ATOM      3  C   UNL     1      -1.554  -4.085   3.185  0.00  0.00    +0.000 A 
ATOM      4  C   UNL     1      -1.336  -5.461   3.299  0.00  0.00    +0.000 A 
ATOM      5  C   UNL     1      -0.554  -6.102   2.355  0.00  0.00    +0.000 A 
ATOM      6  C   UNL     1       0.005  -5.410   1.296  0.00  0.00    +0.000 A 
ENDROOT
BRANCH   3   7
ATOM      7  O   UNL     1      -2.310  -3.481   4.150  0.00  0.00    +0.000 OA
ATOM      8  H   UNL     1      -2.488  -2.498   4.103  0.00  0.00    +0.000 HD
ENDBRANCH   3   7
BRANCH   4   9
ATOM      9  O   UNL     1      -1.903  -6.198   4.290  0.00  0.00    +0.000 OA
ATOM     10  H   UNL     1      -2.472  -5.753   4.982  0.00  0.00    +0.000 HD
ENDBRANCH   4   9
BRANCH   1  11
ATOM     11  C   UNL     1       0.534  -3.299   0.054  0.00  0.00    +0.000 C 
BRANCH  11  12
ATOM     12  C   UNL     1       0.087  -3.836  -1.296  0.00  0.00    +0.000 C 
BRANCH  12  13
ATOM     13  C   UNL     1      -1.409  -3.620  -1.456  0.00  0.00    +0.000 C 
BRANCH  13  16
ATOM     14  C   UNL     1      -1.691  -0.047  -0.175  0.00  0.00    +0.000 A 
ATOM     15  C   UNL     1      -1.397  -1.415  -0.219  0.00  0.00    +0.000 A 
ATOM     16  C   UNL     1      -1.719  -2.134  -1.373  0.00  0.00    +0.000 A 
ATOM     17  C   UNL     1      -2.316  -1.495  -2.433  0.00  0.00    +0.000 A 
ATOM     18  C   UNL     1      -2.592  -0.139  -2.404  0.00  0.00    +0.000 A 
ATOM     19  C   UNL     1      -2.267   0.568  -1.251  0.00  0.00    +0.000 A 
BRANCH  14  20
ATOM     20  C   UNL     1      -1.185   0.729   1.029  0.00  0.00    +0.000 C 
ATOM     21  C   UNL     1      -1.691   0.074   2.304  0.00  0.00    +0.000 C 
ATOM     22  C   UNL     1      -1.691   2.160   0.959  0.00  0.00    +0.000 C 
BRANCH  20  24
ATOM     23  C   UNL     1       1.016   0.091   0.039  0.00  0.00    +0.000 C 
ATOM     24  C   UNL     1       0.335   0.729   1.029  0.00  0.00    +0.000 C 
ENDBRANCH  20  24
ENDBRANCH  14  20
BRANCH  17  25
ATOM     25  O   UNL     1      -2.686  -2.209  -3.568  0.00  0.00    +0.000 OA
ATOM     26  H   UNL     1      -2.502  -3.190  -3.623  0.00  0.00    +0.000 HD
ENDBRANCH  17  25
BRANCH  19  27
ATOM     27  O   UNL     1      -2.509   1.924  -1.189  0.00  0.00    +0.000 OA
ATOM     28  H   UNL     1      -2.277   2.436  -0.362  0.00  0.00    +0.000 HD
ENDBRANCH  19  27
ENDBRANCH  13  16
ENDBRANCH  12  13
ENDBRANCH  11  12
ENDBRANCH   1  11
BRANCH   5  29
ATOM     29  C   UNL     1      -0.304  -7.596   2.484  0.00  0.00    +0.000 C 
BRANCH  29  30
ATOM     30  C   UNL     1       0.391  -7.881   3.805  0.00  0.00    +0.000 C 
ATOM     31  C   UNL     1      -0.197  -8.696   4.722  0.00  0.00    +0.000 C 
ATOM     32  C   UNL     1       0.498  -8.981   6.043  0.00  0.00    +0.000 C 
ATOM     33  C   UNL     1      -1.550  -9.321   4.425  0.00  0.00    +0.000 C 
ENDBRANCH  29  30
ENDBRANCH   5  29
BRANCH   6  34
ATOM     34  C   UNL     1       0.854  -6.149   0.273  0.00  0.00    +0.000 C 
BRANCH  34  35
ATOM     35  C   UNL     1       2.045  -6.786   0.969  0.00  0.00    +0.000 C 
ATOM     36  C   UNL     1       2.218  -8.135   0.924  0.00  0.00    +0.000 C 
ATOM     37  C   UNL     1       3.410  -8.772   1.620  0.00  0.00    +0.000 C 
ATOM     38  C   UNL     1       1.219  -9.005   0.178  0.00  0.00    +0.000 C 
ENDBRANCH  34  35
ENDBRANCH   6  34
TORSDOF 14
