REMARK  Name = 
REMARK  20 active torsions:
REMARK  status: ('A' for Active; 'I' for Inactive)
REMARK    1  A    between atoms: C_2  and  C_3
REMARK    2  A    between atoms: C_3  and  C_4
REMARK    3  A    between atoms: C_3  and  C_5
REMARK    4  A    between atoms: C_3  and  C_6
REMARK    5  A    between atoms: C_8  and  C_9
REMARK    6  A    between atoms: C_9  and  C_10
REMARK    7  A    between atoms: C_10  and  C_11
REMARK    8  A    between atoms: C_11  and  C_12
REMARK    9  A    between atoms: C_14  and  O_15
REMARK   10  A    between atoms: C_16  and  O_17
REMARK   11  A    between atoms: C_18  and  C_19
REMARK   12  A    between atoms: C_19  and  C_20
REMARK   13  A    between atoms: C_21  and  C_22
REMARK   14  A    between atoms: C_21  and  C_23
REMARK   15  A    between atoms: C_24  and  C_25
REMARK   16  A    between atoms: C_25  and  C_26
REMARK   17  A    between atoms: C_27  and  C_28
REMARK   18  A    between atoms: C_27  and  C_29
REMARK   19  A    between atoms: C_30  and  O_31
REMARK   20  A    between atoms: C_33  and  O_34
REMARK                            x       y       z     vdW  Elec       q    Type
REMARK                         _______ _______ _______ _____ _____    ______ ____
ROOT
ATOM      1  C   UNL     1      -5.520  -0.643   2.380  0.00  0.00    +0.000 A 
ATOM      2  C   UNL     1      -5.732  -2.021   2.558  0.00  0.00    +0.000 A 
ATOM      3  C   UNL     1      -5.697  -2.599   3.816  0.00  0.00    +0.000 A 
ATOM      4  C   UNL     1      -5.461  -1.800   4.938  0.00  0.00    +0.000 A 
ATOM      5  C   UNL     1      -5.268  -0.440   4.771  0.00  0.00    +0.000 A 
ATOM      6  C   UNL     1      -5.291   0.140   3.516  0.00  0.00    +0.000 A 
ENDROOT
BRANCH   3   7
ATOM      7  O   UNL     1      -5.909  -3.933   4.021  0.00  0.00    +0.000 OA
ATOM      8  H   UNL     1      -6.081  -4.537   3.243  0.00  0.00    +0.000 HD
ENDBRANCH   3   7
BRANCH   4   9
ATOM      9  O   UNL     1      -5.377  -2.325   6.189  0.00  0.00    +0.000 OA
ATOM     10  H   UNL     1      -5.514  -3.305   6.330  0.00  0.00    +0.000 HD
ENDBRANCH   4   9
BRANCH   1  11
ATOM     11  C   UNL     1      -5.621  -0.024   0.995  0.00  0.00    +0.000 C 
BRANCH  11  12
ATOM     12  C   UNL     1      -5.809   1.479   1.125  0.00  0.00    +0.000 C 
BRANCH  12  13
ATOM     13  C   UNL     1      -4.622   2.076   1.862  0.00  0.00    +0.000 C 
BRANCH  13  16
ATOM     14  C   UNL     1      -1.784   0.241   0.111  0.00  0.00    +0.000 A 
ATOM     15  C   UNL     1      -2.959   0.471   0.834  0.00  0.00    +0.000 A 
ATOM     16  C   UNL     1      -3.347   1.791   1.084  0.00  0.00    +0.000 A 
ATOM     17  C   UNL     1      -2.573   2.829   0.624  0.00  0.00    +0.000 A 
ATOM     18  C   UNL     1      -1.420   2.610  -0.108  0.00  0.00    +0.000 A 
ATOM     19  C   UNL     1      -1.044   1.293  -0.351  0.00  0.00    +0.000 A 
BRANCH  14  20
ATOM     20  C   UNL     1      -1.277  -1.166  -0.157  0.00  0.00    +0.000 C 
ATOM     21  C   UNL     1      -1.784  -1.637  -1.510  0.00  0.00    +0.000 C 
ATOM     22  C   UNL     1      -1.784  -2.103   0.928  0.00  0.00    +0.000 C 
BRANCH  20  24
ATOM     23  C   UNL     1       0.923  -0.009   0.064  0.00  0.00    +0.000 C 
ATOM     24  C   UNL     1       0.243  -1.166  -0.157  0.00  0.00    +0.000 C 
ENDBRANCH  20  24
ENDBRANCH  14  20
BRANCH  17  25
ATOM     25  O   UNL     1      -2.922   4.146   0.908  0.00  0.00    +0.000 OA
ATOM     26  H   UNL     1      -3.749   4.341   1.435  0.00  0.00    +0.000 HD
ENDBRANCH  17  25
BRANCH  19  27
ATOM     27  O   UNL     1       0.090   1.031  -1.092  0.00  0.00    +0.000 OA
ATOM     28  H   UNL     1       0.364   0.086  -1.270  0.00  0.00    +0.000 HD
ENDBRANCH  19  27
ENDBRANCH  13  16
ENDBRANCH  12  13
ENDBRANCH  11  12
ENDBRANCH   1  11
BRANCH   5  29
ATOM     29  C   UNL     1      -5.025   0.434   5.991  0.00  0.00    +0.000 C 
BRANCH  29  30
ATOM     30  C   UNL     1      -6.216   0.336   6.930  0.00  0.00    +0.000 C 
ATOM     31  C   UNL     1      -6.046  -0.124   8.199  0.00  0.00    +0.000 C 
ATOM     32  C   UNL     1      -7.238  -0.222   9.137  0.00  0.00    +0.000 C 
ATOM     33  C   UNL     1      -4.665  -0.538   8.678  0.00  0.00    +0.000 C 
ENDBRANCH  29  30
ENDBRANCH   5  29
BRANCH   6  34
ATOM     34  C   UNL     1      -5.067   1.637   3.370  0.00  0.00    +0.000 C 
BRANCH  34  35
ATOM     35  C   UNL     1      -6.139   2.387   4.144  0.00  0.00    +0.000 C 
ATOM     36  C   UNL     1      -5.786   3.227   5.154  0.00  0.00    +0.000 C 
ATOM     37  C   UNL     1      -6.858   3.978   5.927  0.00  0.00    +0.000 C 
ATOM     38  C   UNL     1      -4.320   3.416   5.508  0.00  0.00    +0.000 C 
ENDBRANCH  34  35
ENDBRANCH   6  34
TORSDOF 14
