REMARK  Name = 
REMARK  7 active torsions:
REMARK  status: ('A' for Active; 'I' for Inactive)
REMARK    1  A    between atoms: C_4  and  O_5
REMARK    2  A    between atoms: O_5  and  C_6
REMARK    3  A    between atoms: C_8  and  C_9
REMARK    4  A    between atoms: C_9  and  O_10
REMARK    5  A    between atoms: C_11  and  O_12
REMARK    6  A    between atoms: C_13  and  O_14
REMARK    7  A    between atoms: C_15  and  O_16
REMARK                            x       y       z     vdW  Elec       q    Type
REMARK                         _______ _______ _______ _____ _____    ______ ____
ROOT
ATOM      1  C   UNL     1       2.376   1.198  -1.945  0.00  0.00    +0.000 C 
ATOM      2  O   UNL     1       2.307  -0.284  -2.322  0.00  0.00    +0.000 OA
ATOM      3  C   UNL     1       1.219  -0.901  -1.629  0.00  0.00    +0.000 C 
ATOM      4  C   UNL     1      -0.060  -0.348  -1.942  0.00  0.00    +0.000 C 
ATOM      5  C   UNL     1      -0.087   1.131  -1.550  0.00  0.00    +0.000 C 
ATOM      6  C   UNL     1       1.039   1.865  -2.285  0.00  0.00    +0.000 C 
ENDROOT
BRANCH   4   7
ATOM      7  O   UNL     1      -1.067  -1.047  -1.224  0.00  0.00    +0.000 OA
ATOM      8  H   UNL     1      -0.897  -0.959  -0.242  0.00  0.00    +0.000 HD
ENDBRANCH   4   7
BRANCH   5   9
ATOM      9  O   UNL     1       0.096   1.257  -0.148  0.00  0.00    +0.000 OA
ATOM     10  H   UNL     1       0.977   0.860   0.111  0.00  0.00    +0.000 HD
ENDBRANCH   5   9
BRANCH   6  11
ATOM     11  O   UNL     1       1.067   3.227  -1.881  0.00  0.00    +0.000 OA
ATOM     12  H   UNL     1       1.224   3.278  -0.895  0.00  0.00    +0.000 HD
ENDBRANCH   6  11
BRANCH   1  13
ATOM     13  O   UNL     1       2.631   1.324  -0.554  0.00  0.00    +0.000 OA
BRANCH  13  17
ATOM     14  O   UNL     1      -1.898   0.079   0.013  0.00  0.00    +0.000 OA
ATOM     15  C   UNL     1      -0.698   0.104  -0.003  0.00  0.00    +0.000 C 
ATOM     16  C   UNL     1       0.215   1.262  -0.122  0.00  0.00    +0.000 C 
ATOM     17  C   UNL     1       1.589   0.694   0.177  0.00  0.00    +0.000 C 
ATOM     18  C   UNL     1       1.422  -0.775  -0.158  0.00  0.00    +0.000 C 
ATOM     19  O   UNL     1       0.000  -1.044   0.066  0.00  0.00    +0.000 OA
ENDBRANCH  13  17
ENDBRANCH   1  13
BRANCH   3  20
ATOM     20  C   UNL     1       1.450  -0.658  -0.146  0.00  0.00    +0.000 C 
BRANCH  20  21
ATOM     21  O   UNL     1       0.412  -1.274   0.602  0.00  0.00    +0.000 OA
ATOM     22  H   UNL     1      -0.468  -0.884   0.334  0.00  0.00    +0.000 HD
ENDBRANCH  20  21
ENDBRANCH   3  20
TORSDOF 7
