
 OpenBabel03132512093D

136144  0  0  0  0  0  0  0  0999 V2000
    0.9947    0.0959    0.0279 C   0  0  0  0  0  0  0  0  0  0  0  0
    0.4881    0.8283    1.2597 C   0  0  0  0  0  0  0  0  0  0  0  0
    1.1383    2.2071    1.3953 O   0  0  0  0  0  0  0  0  0  0  0  0
    0.8334    2.9927    0.2410 C   0  0  0  0  0  0  0  0  0  0  0  0
    1.2860    2.2573   -0.8863 O   0  0  0  0  0  0  0  0  0  0  0  0
    0.5953    1.0183   -0.9515 C   0  0  0  0  0  0  0  0  0  0  0  0
    0.5239   -0.5077   -0.8587 C   0  0  0  0  0  0  0  0  0  0  0  0
   -0.0451   -1.0286   -2.0509 O   0  0  0  0  0  0  0  0  0  0  0  0
   -1.3533   -0.5030   -2.2200 C   0  0  0  0  0  0  0  0  0  0  0  0
   -2.2574   -1.0952   -1.1363 C   0  0  0  0  0  0  0  0  0  0  0  0
   -2.0331   -0.4095    0.0975 C   0  0  0  0  0  0  0  0  0  0  0  0
   -2.3283    0.9876    0.0501 C   0  0  0  0  0  0  0  0  0  0  0  0
   -3.7843    1.1850   -0.3389 C   0  0  0  0  0  0  0  0  0  0  0  0
   -1.4271    1.6640   -0.9856 C   0  0  0  0  0  0  0  0  0  0  0  0
    0.0276    1.5227   -0.5678 C   0  0  0  0  0  0  0  0  0  0  0  0
    0.9187    2.1940   -1.6002 C   0  0  0  0  0  0  0  0  0  0  0  0
    0.5602    3.6679   -1.6972 C   0  0  0  0  0  0  0  0  0  0  0  0
   -0.8099    3.6722   -2.3552 C   0  0  0  0  0  0  0  0  0  0  0  0
    0.4653    4.2480   -0.4900 C   0  0  0  0  0  0  0  0  0  0  0  0
    0.4870    5.6065   -0.3498 C   0  0  0  0  0  0  0  0  0  0  0  0
    0.6197    6.3931   -1.4582 C   0  0  0  0  0  0  0  0  0  0  0  0
    0.7223    5.7380   -2.7700 C   0  0  0  0  0  0  0  0  0  0  0  0
    0.8504    6.4754   -3.9060 C   0  0  0  0  0  0  0  0  0  0  0  0
    0.9418    5.8709   -5.3091 C   0  0  0  0  0  0  0  0  0  0  0  0
   -0.1208    6.3811   -6.1172 C   0  0  0  0  0  0  0  0  0  0  0  0
   -0.0926    7.7991   -6.2903 C   0  0  0  0  0  0  0  0  0  0  0  0
   -0.2259    8.4816   -4.9268 C   0  0  0  0  0  0  0  0  0  0  0  0
   -1.5679    8.1280   -4.3070 C   0  0  0  0  0  0  0  0  0  0  0  0
   -0.1418    9.8896   -5.0900 O   0  0  0  0  0  0  0  0  0  0  0  0
    2.2769    6.2409   -5.9345 C   0  0  0  0  0  0  0  0  0  0  0  0
    2.5814    7.4627   -6.1062 O   0  0  0  0  0  0  0  0  0  0  0  0
    0.9062    8.0029   -4.0125 C   0  0  0  0  0  0  0  0  0  0  0  0
    0.7467    8.6196   -2.6325 C   0  0  0  0  0  0  0  0  0  0  0  0
    2.1569    8.3965   -4.5577 O   0  0  0  0  0  0  0  0  0  0  0  0
    0.8275    4.3580   -5.2176 C   0  0  0  0  0  0  0  0  0  0  0  0
    2.0809    4.0278   -3.3101 C   0  0  0  0  0  0  0  0  0  0  0  0
    0.6868    4.3896   -2.8243 C   0  0  0  0  0  0  0  0  0  0  0  0
   -0.4885    4.0193   -3.7141 C   0  0  0  0  0  0  0  0  0  0  0  0
   -1.6390    0.9968   -2.3482 C   0  0  0  0  0  0  0  0  0  0  0  0
   -0.6998    1.6124   -3.3725 C   0  0  0  0  0  0  0  0  0  0  0  0
   -3.0755    1.2050   -2.7994 C   0  0  0  0  0  0  0  0  0  0  0  0
   -0.2867   -0.8790    0.2583 O   0  0  0  0  0  0  0  0  0  0  0  0
   -1.6372   -0.4199    0.1768 C   0  0  0  0  0  0  0  0  0  0  0  0
   -1.6533    1.1096    0.1258 C   0  0  0  0  0  0  0  0  0  0  0  0
   -1.1003    1.6334    1.3243 O   0  0  0  0  0  0  0  0  0  0  0  0
   -0.8246    1.5811   -1.0733 C   0  0  0  0  0  0  0  0  0  0  0  0
   -0.7775    3.0002   -1.0951 O   0  0  0  0  0  0  0  0  0  0  0  0
   -0.1833    3.4726    0.1049 C   0  0  0  0  0  0  0  0  0  0  0  0
   -1.0188    2.9682    1.2838 O   0  0  0  0  0  0  0  0  0  0  0  0
   -1.0129    1.5390    1.2943 C   0  0  0  0  0  0  0  0  0  0  0  0
   -1.5345    1.0884   -0.0604 C   0  0  0  0  0  0  0  0  0  0  0  0
   -1.5789   -0.3302   -0.1025 O   0  0  0  0  0  0  0  0  0  0  0  0
    0.2853    0.9625    1.4487 C   0  0  0  0  0  0  0  0  0  0  0  0
    0.1751   -0.4530    1.4725 O   0  0  0  0  0  0  0  0  0  0  0  0
    1.1735    1.3858    0.2764 C   0  0  0  0  0  0  0  0  0  0  0  0
    0.6315    0.8878   -0.9379 O   0  0  0  0  0  0  0  0  0  0  0  0
    1.2391    2.9153    0.2225 C   0  0  0  0  0  0  0  0  0  0  0  0
    2.0079    3.3229   -0.8998 O   0  0  0  0  0  0  0  0  0  0  0  0
   -0.5627    3.2266    0.0471 C   0  0  0  0  0  0  0  0  0  0  0  0
   -0.7522    4.0342   -1.1053 O   0  0  0  0  0  0  0  0  0  0  0  0
   -1.2818    1.8890   -0.1430 C   0  0  0  0  0  0  0  0  0  0  0  0
   -0.7945    1.2465   -1.3119 O   0  0  0  0  0  0  0  0  0  0  0  0
   -1.0235    1.0015    1.0786 C   0  0  0  0  0  0  0  0  0  0  0  0
   -1.6318   -0.2672    0.8866 O   0  0  0  0  0  0  0  0  0  0  0  0
    0.6381    0.5890   -0.8521 H   0  0  0  0  0  0  0  0  0  0  0  0
    0.6381   -0.9128    0.0409 H   0  0  0  0  0  0  0  0  0  0  0  0
    2.0647    0.0959    0.0279 H   0  0  0  0  0  0  0  0  0  0  0  0
    0.7275    0.2703    2.1407 H   0  0  0  0  0  0  0  0  0  0  0  0
    1.3222    3.9394    0.3400 H   0  0  0  0  0  0  0  0  0  0  0  0
    1.5517    0.5415   -1.0049 H   0  0  0  0  0  0  0  0  0  0  0  0
    1.5097   -0.9039   -0.7315 H   0  0  0  0  0  0  0  0  0  0  0  0
   -1.5487   -0.8039   -3.2280 H   0  0  0  0  0  0  0  0  0  0  0  0
   -3.2815   -0.9835   -1.4256 H   0  0  0  0  0  0  0  0  0  0  0  0
   -2.0331   -2.1341   -1.0130 H   0  0  0  0  0  0  0  0  0  0  0  0
   -0.9889   -0.4973    0.3140 H   0  0  0  0  0  0  0  0  0  0  0  0
   -2.6497   -0.8581    0.8482 H   0  0  0  0  0  0  0  0  0  0  0  0
   -3.9584    0.7509   -1.3013 H   0  0  0  0  0  0  0  0  0  0  0  0
   -4.4143    0.7118    0.3850 H   0  0  0  0  0  0  0  0  0  0  0  0
   -4.0053    2.2314   -0.3744 H   0  0  0  0  0  0  0  0  0  0  0  0
   -1.6756    2.7025   -1.0528 H   0  0  0  0  0  0  0  0  0  0  0  0
    0.1719    1.9883    0.3847 H   0  0  0  0  0  0  0  0  0  0  0  0
    0.2799    0.4851   -0.4995 H   0  0  0  0  0  0  0  0  0  0  0  0
    1.9427    2.0945   -1.3061 H   0  0  0  0  0  0  0  0  0  0  0  0
    0.7743    1.7284   -2.5527 H   0  0  0  0  0  0  0  0  0  0  0  0
   -0.7448    3.2095   -3.3178 H   0  0  0  0  0  0  0  0  0  0  0  0
   -1.5006    3.1293   -1.7445 H   0  0  0  0  0  0  0  0  0  0  0  0
   -1.1489    4.6810   -2.4666 H   0  0  0  0  0  0  0  0  0  0  0  0
    1.2805    3.8710    0.0916 H   0  0  0  0  0  0  0  0  0  0  0  0
    0.4007    6.0505    0.6199 H   0  0  0  0  0  0  0  0  0  0  0  0
    0.6484    7.4594   -1.3738 H   0  0  0  0  0  0  0  0  0  0  0  0
   -1.0335    6.1504   -5.6087 H   0  0  0  0  0  0  0  0  0  0  0  0
   -0.0586    5.9235   -7.0824 H   0  0  0  0  0  0  0  0  0  0  0  0
   -0.9044    8.0981   -6.9199 H   0  0  0  0  0  0  0  0  0  0  0  0
    0.8338    8.0848   -6.7432 H   0  0  0  0  0  0  0  0  0  0  0  0
   -1.6573    8.6054   -3.3536 H   0  0  0  0  0  0  0  0  0  0  0  0
   -2.3563    8.4623   -4.9486 H   0  0  0  0  0  0  0  0  0  0  0  0
   -1.6350    7.0674   -4.1825 H   0  0  0  0  0  0  0  0  0  0  0  0
    1.5382    8.2811   -1.9969 H   0  0  0  0  0  0  0  0  0  0  0  0
    0.7844    9.6860   -2.7118 H   0  0  0  0  0  0  0  0  0  0  0  0
   -0.1946    8.3259   -2.2172 H   0  0  0  0  0  0  0  0  0  0  0  0
    2.8946    8.0832   -3.9596 H   0  0  0  0  0  0  0  0  0  0  0  0
    0.8911    3.9355   -6.1986 H   0  0  0  0  0  0  0  0  0  0  0  0
    1.6231    3.9761   -4.6126 H   0  0  0  0  0  0  0  0  0  0  0  0
    2.2707    4.5145   -4.2439 H   0  0  0  0  0  0  0  0  0  0  0  0
    2.8039    4.3461   -2.5885 H   0  0  0  0  0  0  0  0  0  0  0  0
   -1.3918    4.4072   -3.2917 H   0  0  0  0  0  0  0  0  0  0  0  0
   -0.3430    4.4359   -4.6889 H   0  0  0  0  0  0  0  0  0  0  0  0
   -0.5581    2.9541   -3.7882 H   0  0  0  0  0  0  0  0  0  0  0  0
   -0.8499    1.1422   -4.3219 H   0  0  0  0  0  0  0  0  0  0  0  0
   -0.9014    2.6597   -3.4574 H   0  0  0  0  0  0  0  0  0  0  0  0
    0.3132    1.4684   -3.0594 H   0  0  0  0  0  0  0  0  0  0  0  0
   -3.7409    0.7702   -2.0831 H   0  0  0  0  0  0  0  0  0  0  0  0
   -3.2753    2.2530   -2.8815 H   0  0  0  0  0  0  0  0  0  0  0  0
   -3.2216    0.7384   -3.7511 H   0  0  0  0  0  0  0  0  0  0  0  0
   -2.1803   -0.7541    1.0360 H   0  0  0  0  0  0  0  0  0  0  0  0
   -2.0943   -0.8112   -0.7081 H   0  0  0  0  0  0  0  0  0  0  0  0
   -2.6611    1.4539    0.0222 H   0  0  0  0  0  0  0  0  0  0  0  0
   -0.1582    1.3135    1.4243 H   0  0  0  0  0  0  0  0  0  0  0  0
   -1.2730    1.2303   -1.9792 H   0  0  0  0  0  0  0  0  0  0  0  0
   -0.1458    4.5419    0.1029 H   0  0  0  0  0  0  0  0  0  0  0  0
   -1.6269    1.2063    2.1049 H   0  0  0  0  0  0  0  0  0  0  0  0
   -2.5183    1.4808   -0.2123 H   0  0  0  0  0  0  0  0  0  0  0  0
   -0.8844    1.4479   -0.8305 H   0  0  0  0  0  0  0  0  0  0  0  0
   -0.6595   -0.6969    0.0394 H   0  0  0  0  0  0  0  0  0  0  0  0
    0.7195    1.3016    2.3659 H   0  0  0  0  0  0  0  0  0  0  0  0
   -0.2307   -0.7702    0.6153 H   0  0  0  0  0  0  0  0  0  0  0  0
    2.1582    0.9897    0.4120 H   0  0  0  0  0  0  0  0  0  0  0  0
   -0.2891    1.2561   -1.0678 H   0  0  0  0  0  0  0  0  0  0  0  0
    1.6970    3.2864    1.1156 H   0  0  0  0  0  0  0  0  0  0  0  0
    1.5837    2.9783   -1.7372 H   0  0  0  0  0  0  0  0  0  0  0  0
   -0.9627    3.7281    0.9035 H   0  0  0  0  0  0  0  0  0  0  0  0
   -0.3784    3.5657   -1.9058 H   0  0  0  0  0  0  0  0  0  0  0  0
   -2.3332    2.0591   -0.2462 H   0  0  0  0  0  0  0  0  0  0  0  0
    0.1881    1.0859   -1.2189 H   0  0  0  0  0  0  0  0  0  0  0  0
   -1.4387    1.4620    1.9506 H   0  0  0  0  0  0  0  0  0  0  0  0
   -1.2467   -0.7016    0.0724 H   0  0  0  0  0  0  0  0  0  0  0  0
  1  2  1  0  0  0  0
  1 65  1  0  0  0  0
  1 66  1  0  0  0  0
  1 67  1  0  0  0  0
  2  3  1  0  0  0  0
  2 63  1  0  0  0  0
  2 68  1  0  0  0  0
  3  4  1  0  0  0  0
  4  5  1  0  0  0  0
  4 59  1  0  0  0  0
  4 69  1  0  0  0  0
  5  6  1  0  0  0  0
  6  7  1  0  0  0  0
  6 46  1  0  0  0  0
  6 70  1  0  0  0  0
  7  8  1  0  0  0  0
  7 42  1  0  0  0  0
  7 71  1  0  0  0  0
  8  9  1  0  0  0  0
  9 10  1  0  0  0  0
  9 39  1  0  0  0  0
  9 72  1  0  0  0  0
 10 11  1  0  0  0  0
 10 73  1  0  0  0  0
 10 74  1  0  0  0  0
 11 12  1  0  0  0  0
 11 75  1  0  0  0  0
 11 76  1  0  0  0  0
 12 13  1  0  0  0  0
 12 14  1  0  0  0  0
 12 19  1  0  0  0  0
 13 77  1  0  0  0  0
 13 78  1  0  0  0  0
 13 79  1  0  0  0  0
 14 15  1  0  0  0  0
 14 39  1  0  0  0  0
 14 80  1  0  0  0  0
 15 16  1  0  0  0  0
 15 81  1  0  0  0  0
 15 82  1  0  0  0  0
 16 17  1  0  0  0  0
 16 83  1  0  0  0  0
 16 84  1  0  0  0  0
 17 18  1  0  0  0  0
 17 19  1  0  0  0  0
 17 37  1  0  0  0  0
 18 85  1  0  0  0  0
 18 86  1  0  0  0  0
 18 87  1  0  0  0  0
 19 20  1  0  0  0  0
 19 88  1  0  0  0  0
 20 21  2  0  0  0  0
 20 89  1  0  0  0  0
 21 22  1  0  0  0  0
 21 90  1  0  0  0  0
 22 23  2  0  0  0  0
 22 37  1  0  0  0  0
 23 24  1  0  0  0  0
 23 32  1  0  0  0  0
 24 25  1  0  0  0  0
 24 30  1  0  0  0  0
 24 35  1  0  0  0  0
 25 26  1  0  0  0  0
 25 91  1  0  0  0  0
 25 92  1  0  0  0  0
 26 27  1  0  0  0  0
 26 93  1  0  0  0  0
 26 94  1  0  0  0  0
 27 28  1  0  0  0  0
 27 29  1  0  0  0  0
 27 32  1  0  0  0  0
 28 95  1  0  0  0  0
 28 96  1  0  0  0  0
 28 97  1  0  0  0  0
 29 30  1  0  0  0  0
 30 31  2  0  0  0  0
 32 33  1  0  0  0  0
 32 34  1  0  0  0  0
 33 98  1  0  0  0  0
 33 99  1  0  0  0  0
 33100  1  0  0  0  0
 34101  1  0  0  0  0
 35 36  1  0  0  0  0
 35102  1  0  0  0  0
 35103  1  0  0  0  0
 36 37  1  0  0  0  0
 36104  1  0  0  0  0
 36105  1  0  0  0  0
 37 38  1  0  0  0  0
 38106  1  0  0  0  0
 38107  1  0  0  0  0
 38108  1  0  0  0  0
 39 40  1  0  0  0  0
 39 41  1  0  0  0  0
 40109  1  0  0  0  0
 40110  1  0  0  0  0
 40111  1  0  0  0  0
 41112  1  0  0  0  0
 41113  1  0  0  0  0
 41114  1  0  0  0  0
 42 43  1  0  0  0  0
 43 44  1  0  0  0  0
 43115  1  0  0  0  0
 43116  1  0  0  0  0
 44 45  1  0  0  0  0
 44 46  1  0  0  0  0
 44117  1  0  0  0  0
 45118  1  0  0  0  0
 46 47  1  0  0  0  0
 46119  1  0  0  0  0
 47 48  1  0  0  0  0
 48 49  1  0  0  0  0
 48 57  1  0  0  0  0
 48120  1  0  0  0  0
 49 50  1  0  0  0  0
 50 51  1  0  0  0  0
 50 53  1  0  0  0  0
 50121  1  0  0  0  0
 51 52  1  0  0  0  0
 51122  1  0  0  0  0
 51123  1  0  0  0  0
 52124  1  0  0  0  0
 53 54  1  0  0  0  0
 53 55  1  0  0  0  0
 53125  1  0  0  0  0
 54126  1  0  0  0  0
 55 56  1  0  0  0  0
 55 57  1  0  0  0  0
 55127  1  0  0  0  0
 56128  1  0  0  0  0
 57 58  1  0  0  0  0
 57129  1  0  0  0  0
 58130  1  0  0  0  0
 59 60  1  0  0  0  0
 59 61  1  0  0  0  0
 59131  1  0  0  0  0
 60132  1  0  0  0  0
 61 62  1  0  0  0  0
 61 63  1  0  0  0  0
 61133  1  0  0  0  0
 62134  1  0  0  0  0
 63 64  1  0  0  0  0
 63135  1  0  0  0  0
 64136  1  0  0  0  0
M  END
