
 OpenBabel03132514253D

136144  0  0  0  0  0  0  0  0999 V2000
    1.0512    0.0395   -0.0762 C   0  0  0  0  0  0  0  0  0  0  0  0
    0.5446    0.9192    1.0551 C   0  0  0  0  0  0  0  0  0  0  0  0
    1.2516    2.2753    1.1125 O   0  0  0  0  0  0  0  0  0  0  0  0
    1.0633    2.9630   -0.1261 C   0  0  0  0  0  0  0  0  0  0  0  0
    1.5531    2.1075   -1.1482 O   0  0  0  0  0  0  0  0  0  0  0  0
    0.8080    0.8987   -1.1511 C   0  0  0  0  0  0  0  0  0  0  0  0
    1.9581   -0.0209   -0.7340 C   0  0  0  0  0  0  0  0  0  0  0  0
    2.1703   -1.0002   -1.7402 O   0  0  0  0  0  0  0  0  0  0  0  0
    0.9881   -1.7681   -1.9102 C   0  0  0  0  0  0  0  0  0  0  0  0
    0.5422   -2.9311   -1.0208 C   0  0  0  0  0  0  0  0  0  0  0  0
   -0.1636   -2.4202    0.1121 C   0  0  0  0  0  0  0  0  0  0  0  0
   -1.3480   -1.6927   -0.2183 C   0  0  0  0  0  0  0  0  0  0  0  0
   -2.2953   -2.5924   -0.9951 C   0  0  0  0  0  0  0  0  0  0  0  0
   -0.9786   -0.4796   -1.0752 C   0  0  0  0  0  0  0  0  0  0  0  0
   -0.0810    0.4542   -0.2797 C   0  0  0  0  0  0  0  0  0  0  0  0
    0.2848    1.6561   -1.1353 C   0  0  0  0  0  0  0  0  0  0  0  0
   -0.9809    2.3934   -1.5409 C   0  0  0  0  0  0  0  0  0  0  0  0
   -2.2347    1.9755   -0.7901 C   0  0  0  0  0  0  0  0  0  0  0  0
   -0.9730    3.6753   -1.1415 C   0  0  0  0  0  0  0  0  0  0  0  0
   -1.2508    4.6927   -2.0095 C   0  0  0  0  0  0  0  0  0  0  0  0
   -1.5312    4.4033   -3.3143 C   0  0  0  0  0  0  0  0  0  0  0  0
   -1.5343    2.9937   -3.7309 C   0  0  0  0  0  0  0  0  0  0  0  0
   -1.8127    2.6507   -5.0175 C   0  0  0  0  0  0  0  0  0  0  0  0
   -1.9076    1.2098   -5.5247 C   0  0  0  0  0  0  0  0  0  0  0  0
   -3.2179    0.9736   -6.0444 C   0  0  0  0  0  0  0  0  0  0  0  0
   -3.5664    1.8100   -7.1491 C   0  0  0  0  0  0  0  0  0  0  0  0
   -3.5386    3.2751   -6.7076 C   0  0  0  0  0  0  0  0  0  0  0  0
   -4.5785    3.5021   -5.6225 C   0  0  0  0  0  0  0  0  0  0  0  0
   -3.8299    4.1115   -7.8176 O   0  0  0  0  0  0  0  0  0  0  0  0
   -0.8795    0.9900   -6.6224 C   0  0  0  0  0  0  0  0  0  0  0  0
   -0.9208    1.6914   -7.6814 O   0  0  0  0  0  0  0  0  0  0  0  0
   -2.1458    3.6100   -6.1649 C   0  0  0  0  0  0  0  0  0  0  0  0
   -2.1233    5.0430   -5.6585 C   0  0  0  0  0  0  0  0  0  0  0  0
   -1.1844    3.4659   -7.2000 O   0  0  0  0  0  0  0  0  0  0  0  0
   -1.6367    0.2500   -4.3777 C   0  0  0  0  0  0  0  0  0  0  0  0
    0.0614    1.4668   -3.3011 C   0  0  0  0  0  0  0  0  0  0  0  0
   -1.2552    2.0465   -2.8104 C   0  0  0  0  0  0  0  0  0  0  0  0
   -2.4587    1.1194   -2.7593 C   0  0  0  0  0  0  0  0  0  0  0  0
   -0.2420   -0.9570   -2.3307 C   0  0  0  0  0  0  0  0  0  0  0  0
    0.1923    0.2420   -3.1579 C   0  0  0  0  0  0  0  0  0  0  0  0
   -1.1671   -1.8294   -3.1634 C   0  0  0  0  0  0  0  0  0  0  0  0
    1.6282   -0.6667    0.4976 O   0  0  0  0  0  0  0  0  0  0  0  0
    0.4625   -1.4899    0.4303 C   0  0  0  0  0  0  0  0  0  0  0  0
   -0.7481   -0.6297    0.0603 C   0  0  0  0  0  0  0  0  0  0  0  0
   -0.9730    0.3396    1.0733 O   0  0  0  0  0  0  0  0  0  0  0  0
   -0.4765    0.0725   -1.2738 C   0  0  0  0  0  0  0  0  0  0  0  0
   -1.5654    0.9247   -1.5973 O   0  0  0  0  0  0  0  0  0  0  0  0
   -1.7251    1.8974   -0.5753 C   0  0  0  0  0  0  0  0  0  0  0  0
   -2.0009    1.2510    0.7843 O   0  0  0  0  0  0  0  0  0  0  0  0
   -0.8943    0.4243    1.1513 C   0  0  0  0  0  0  0  0  0  0  0  0
   -0.7044   -0.5793    0.0257 C   0  0  0  0  0  0  0  0  0  0  0  0
    0.3692   -1.4519    0.3457 O   0  0  0  0  0  0  0  0  0  0  0  0
    0.3406    1.1298    1.2873 C   0  0  0  0  0  0  0  0  0  0  0  0
    1.3627    0.2247    1.6778 O   0  0  0  0  0  0  0  0  0  0  0  0
    0.7111    1.7714   -0.0519 C   0  0  0  0  0  0  0  0  0  0  0  0
    0.9078    0.7593   -1.0283 O   0  0  0  0  0  0  0  0  0  0  0  0
   -0.4231    2.7011   -0.4945 C   0  0  0  0  0  0  0  0  0  0  0  0
   -0.1210    3.2535   -1.7673 O   0  0  0  0  0  0  0  0  0  0  0  0
   -0.3036    3.2378   -0.4385 C   0  0  0  0  0  0  0  0  0  0  0  0
   -0.3758    3.9426   -1.6691 O   0  0  0  0  0  0  0  0  0  0  0  0
   -1.0735    1.9205   -0.5587 C   0  0  0  0  0  0  0  0  0  0  0  0
   -0.5418    1.1521   -1.6279 O   0  0  0  0  0  0  0  0  0  0  0  0
   -0.9412    1.1397    0.7527 C   0  0  0  0  0  0  0  0  0  0  0  0
   -1.5972   -0.1139    0.6324 O   0  0  0  0  0  0  0  0  0  0  0  0
    0.6946    0.4196   -1.0107 H   0  0  0  0  0  0  0  0  0  0  0  0
    0.6946   -0.9598    0.0618 H   0  0  0  0  0  0  0  0  0  0  0  0
    2.1212    0.0395   -0.0762 H   0  0  0  0  0  0  0  0  0  0  0  0
    0.7266    0.4483    1.9985 H   0  0  0  0  0  0  0  0  0  0  0  0
    1.5905    3.8929   -0.0778 H   0  0  0  0  0  0  0  0  0  0  0  0
   -0.0294    1.4511   -1.5232 H   0  0  0  0  0  0  0  0  0  0  0  0
    2.8491    0.5576   -0.6061 H   0  0  0  0  0  0  0  0  0  0  0  0
    1.4635   -2.3321   -2.6853 H   0  0  0  0  0  0  0  0  0  0  0  0
   -0.0999   -3.5807   -1.5781 H   0  0  0  0  0  0  0  0  0  0  0  0
    1.4010   -3.4768   -0.6898 H   0  0  0  0  0  0  0  0  0  0  0  0
    0.4945   -1.7329    0.6015 H   0  0  0  0  0  0  0  0  0  0  0  0
   -0.4386   -3.2445    0.7365 H   0  0  0  0  0  0  0  0  0  0  0  0
   -1.8172   -2.9225   -1.8937 H   0  0  0  0  0  0  0  0  0  0  0  0
   -2.5532   -3.4407   -0.3961 H   0  0  0  0  0  0  0  0  0  0  0  0
   -3.1823   -2.0475   -1.2425 H   0  0  0  0  0  0  0  0  0  0  0  0
   -1.8682    0.0427   -1.3589 H   0  0  0  0  0  0  0  0  0  0  0  0
   -0.5978    0.7846    0.5970 H   0  0  0  0  0  0  0  0  0  0  0  0
    0.8100   -0.0649    0.0058 H   0  0  0  0  0  0  0  0  0  0  0  0
    0.9167    2.3134   -0.5753 H   0  0  0  0  0  0  0  0  0  0  0  0
    0.8016    1.3257   -2.0120 H   0  0  0  0  0  0  0  0  0  0  0  0
   -2.4194    0.9347   -0.9558 H   0  0  0  0  0  0  0  0  0  0  0  0
   -2.0990    2.1515    0.2565 H   0  0  0  0  0  0  0  0  0  0  0  0
   -3.0684    2.5462   -1.1426 H   0  0  0  0  0  0  0  0  0  0  0  0
    0.0067    3.8659   -0.7559 H   0  0  0  0  0  0  0  0  0  0  0  0
   -1.2488    5.7074   -1.6702 H   0  0  0  0  0  0  0  0  0  0  0  0
   -1.7432    5.1831   -4.0158 H   0  0  0  0  0  0  0  0  0  0  0  0
   -3.9072    1.1984   -5.2575 H   0  0  0  0  0  0  0  0  0  0  0  0
   -3.2739   -0.0460   -6.3639 H   0  0  0  0  0  0  0  0  0  0  0  0
   -4.5487    1.5588   -7.4910 H   0  0  0  0  0  0  0  0  0  0  0  0
   -2.8644    1.6632   -7.9431 H   0  0  0  0  0  0  0  0  0  0  0  0
   -4.5555    4.5268   -5.3152 H   0  0  0  0  0  0  0  0  0  0  0  0
   -5.5498    3.2660   -6.0043 H   0  0  0  0  0  0  0  0  0  0  0  0
   -4.3622    2.8734   -4.7842 H   0  0  0  0  0  0  0  0  0  0  0  0
   -1.1495    5.2719   -5.2787 H   0  0  0  0  0  0  0  0  0  0  0  0
   -2.3583    5.7091   -6.4623 H   0  0  0  0  0  0  0  0  0  0  0  0
   -2.8464    5.1569   -4.8780 H   0  0  0  0  0  0  0  0  0  0  0  0
   -0.2759    3.6849   -6.8440 H   0  0  0  0  0  0  0  0  0  0  0  0
   -1.7034   -0.7574   -4.7323 H   0  0  0  0  0  0  0  0  0  0  0  0
   -0.6557    0.4269   -3.9887 H   0  0  0  0  0  0  0  0  0  0  0  0
   -0.0585    1.1061   -4.3013 H   0  0  0  0  0  0  0  0  0  0  0  0
    0.8142    2.2270   -3.2839 H   0  0  0  0  0  0  0  0  0  0  0  0
   -3.3275    1.6778   -2.4796 H   0  0  0  0  0  0  0  0  0  0  0  0
   -2.6118    0.6804   -3.7230 H   0  0  0  0  0  0  0  0  0  0  0  0
   -2.2838    0.3474   -2.0394 H   0  0  0  0  0  0  0  0  0  0  0  0
    0.7079   -0.0959   -4.0324 H   0  0  0  0  0  0  0  0  0  0  0  0
   -0.6693    0.8064   -3.4476 H   0  0  0  0  0  0  0  0  0  0  0  0
    0.8441    0.8596   -2.5759 H   0  0  0  0  0  0  0  0  0  0  0  0
   -1.4730   -2.6771   -2.5865 H   0  0  0  0  0  0  0  0  0  0  0  0
   -2.0287   -1.2634   -3.4501 H   0  0  0  0  0  0  0  0  0  0  0  0
   -0.6509   -2.1618   -4.0397 H   0  0  0  0  0  0  0  0  0  0  0  0
    0.2955   -1.9507    1.3815 H   0  0  0  0  0  0  0  0  0  0  0  0
    0.6027   -2.2470   -0.3127 H   0  0  0  0  0  0  0  0  0  0  0  0
   -1.6143   -1.2512   -0.0320 H   0  0  0  0  0  0  0  0  0  0  0  0
   -0.1652    0.9224    1.1623 H   0  0  0  0  0  0  0  0  0  0  0  0
   -0.3604   -0.6583   -2.0467 H   0  0  0  0  0  0  0  0  0  0  0  0
   -2.5618    2.5210   -0.8120 H   0  0  0  0  0  0  0  0  0  0  0  0
   -1.1196   -0.0426    2.0874 H   0  0  0  0  0  0  0  0  0  0  0  0
   -1.6016   -1.1487   -0.0997 H   0  0  0  0  0  0  0  0  0  0  0  0
   -0.4824   -0.0589   -0.8825 H   0  0  0  0  0  0  0  0  0  0  0  0
    1.2077   -0.9198    0.4629 H   0  0  0  0  0  0  0  0  0  0  0  0
    0.2361    1.8918    2.0312 H   0  0  0  0  0  0  0  0  0  0  0  0
    1.4605   -0.4876    0.9828 H   0  0  0  0  0  0  0  0  0  0  0  0
    1.6138    2.3352    0.0587 H   0  0  0  0  0  0  0  0  0  0  0  0
    0.0658    0.2302   -1.1342 H   0  0  0  0  0  0  0  0  0  0  0  0
   -0.5345    3.4940    0.2153 H   0  0  0  0  0  0  0  0  0  0  0  0
   -0.0159    2.5159   -2.4343 H   0  0  0  0  0  0  0  0  0  0  0  0
   -0.7345    3.8332    0.3391 H   0  0  0  0  0  0  0  0  0  0  0  0
    0.0269    3.3863   -2.3960 H   0  0  0  0  0  0  0  0  0  0  0  0
   -2.1060    2.1254   -0.7508 H   0  0  0  0  0  0  0  0  0  0  0  0
    0.4234    0.9587   -1.4516 H   0  0  0  0  0  0  0  0  0  0  0  0
   -1.3903    1.6965    1.5484 H   0  0  0  0  0  0  0  0  0  0  0  0
   -1.1807   -0.6381   -0.1104 H   0  0  0  0  0  0  0  0  0  0  0  0
  1  2  1  0  0  0  0
  1 65  1  0  0  0  0
  1 66  1  0  0  0  0
  1 67  1  0  0  0  0
  2  3  1  0  0  0  0
  2 63  1  0  0  0  0
  2 68  1  0  0  0  0
  3  4  1  0  0  0  0
  4  5  1  0  0  0  0
  4 59  1  0  0  0  0
  4 69  1  0  0  0  0
  5  6  1  0  0  0  0
  6  7  1  0  0  0  0
  6 46  1  0  0  0  0
  6 70  1  0  0  0  0
  7  8  1  0  0  0  0
  7 42  1  0  0  0  0
  7 71  1  0  0  0  0
  8  9  1  0  0  0  0
  9 10  1  0  0  0  0
  9 39  1  0  0  0  0
  9 72  1  0  0  0  0
 10 11  1  0  0  0  0
 10 73  1  0  0  0  0
 10 74  1  0  0  0  0
 11 12  1  0  0  0  0
 11 75  1  0  0  0  0
 11 76  1  0  0  0  0
 12 13  1  0  0  0  0
 12 14  1  0  0  0  0
 12 19  1  0  0  0  0
 13 77  1  0  0  0  0
 13 78  1  0  0  0  0
 13 79  1  0  0  0  0
 14 15  1  0  0  0  0
 14 39  1  0  0  0  0
 14 80  1  0  0  0  0
 15 16  1  0  0  0  0
 15 81  1  0  0  0  0
 15 82  1  0  0  0  0
 16 17  1  0  0  0  0
 16 83  1  0  0  0  0
 16 84  1  0  0  0  0
 17 18  1  0  0  0  0
 17 19  1  0  0  0  0
 17 37  1  0  0  0  0
 18 85  1  0  0  0  0
 18 86  1  0  0  0  0
 18 87  1  0  0  0  0
 19 20  1  0  0  0  0
 19 88  1  0  0  0  0
 20 21  2  0  0  0  0
 20 89  1  0  0  0  0
 21 22  1  0  0  0  0
 21 90  1  0  0  0  0
 22 23  2  0  0  0  0
 22 37  1  0  0  0  0
 23 24  1  0  0  0  0
 23 32  1  0  0  0  0
 24 25  1  0  0  0  0
 24 30  1  0  0  0  0
 24 35  1  0  0  0  0
 25 26  1  0  0  0  0
 25 91  1  0  0  0  0
 25 92  1  0  0  0  0
 26 27  1  0  0  0  0
 26 93  1  0  0  0  0
 26 94  1  0  0  0  0
 27 28  1  0  0  0  0
 27 29  1  0  0  0  0
 27 32  1  0  0  0  0
 28 95  1  0  0  0  0
 28 96  1  0  0  0  0
 28 97  1  0  0  0  0
 29 30  1  0  0  0  0
 30 31  2  0  0  0  0
 32 33  1  0  0  0  0
 32 34  1  0  0  0  0
 33 98  1  0  0  0  0
 33 99  1  0  0  0  0
 33100  1  0  0  0  0
 34101  1  0  0  0  0
 35 36  1  0  0  0  0
 35102  1  0  0  0  0
 35103  1  0  0  0  0
 36 37  1  0  0  0  0
 36104  1  0  0  0  0
 36105  1  0  0  0  0
 37 38  1  0  0  0  0
 38106  1  0  0  0  0
 38107  1  0  0  0  0
 38108  1  0  0  0  0
 39 40  1  0  0  0  0
 39 41  1  0  0  0  0
 40109  1  0  0  0  0
 40110  1  0  0  0  0
 40111  1  0  0  0  0
 41112  1  0  0  0  0
 41113  1  0  0  0  0
 41114  1  0  0  0  0
 42 43  1  0  0  0  0
 43 44  1  0  0  0  0
 43115  1  0  0  0  0
 43116  1  0  0  0  0
 44 45  1  0  0  0  0
 44 46  1  0  0  0  0
 44117  1  0  0  0  0
 45118  1  0  0  0  0
 46 47  1  0  0  0  0
 46119  1  0  0  0  0
 47 48  1  0  0  0  0
 48 49  1  0  0  0  0
 48 57  1  0  0  0  0
 48120  1  0  0  0  0
 49 50  1  0  0  0  0
 50 51  1  0  0  0  0
 50 53  1  0  0  0  0
 50121  1  0  0  0  0
 51 52  1  0  0  0  0
 51122  1  0  0  0  0
 51123  1  0  0  0  0
 52124  1  0  0  0  0
 53 54  1  0  0  0  0
 53 55  1  0  0  0  0
 53125  1  0  0  0  0
 54126  1  0  0  0  0
 55 56  1  0  0  0  0
 55 57  1  0  0  0  0
 55127  1  0  0  0  0
 56128  1  0  0  0  0
 57 58  1  0  0  0  0
 57129  1  0  0  0  0
 58130  1  0  0  0  0
 59 60  1  0  0  0  0
 59 61  1  0  0  0  0
 59131  1  0  0  0  0
 60132  1  0  0  0  0
 61 62  1  0  0  0  0
 61 63  1  0  0  0  0
 61133  1  0  0  0  0
 62134  1  0  0  0  0
 63 64  1  0  0  0  0
 63135  1  0  0  0  0
 64136  1  0  0  0  0
M  END
