REMARK  Name = 
REMARK  24 active torsions:
REMARK  status: ('A' for Active; 'I' for Inactive)
REMARK    1  A    between atoms: C_1  and  C_2
REMARK    2  A    between atoms: C_4  and  O_5
REMARK    3  A    between atoms: O_5  and  C_6
REMARK    4  A    between atoms: C_7  and  O_8
REMARK    5  A    between atoms: O_8  and  C_9
REMARK    6  A    between atoms: C_12  and  C_13
REMARK    7  A    between atoms: C_17  and  C_18
REMARK    8  A    between atoms: C_27  and  C_28
REMARK    9  A    between atoms: C_32  and  C_33
REMARK   10  A    between atoms: C_32  and  O_34
REMARK   11  A    between atoms: C_37  and  C_38
REMARK   12  A    between atoms: C_39  and  C_40
REMARK   13  A    between atoms: C_39  and  C_41
REMARK   14  A    between atoms: C_44  and  O_45
REMARK   15  A    between atoms: C_46  and  O_47
REMARK   16  A    between atoms: O_47  and  C_48
REMARK   17  A    between atoms: C_50  and  C_51
REMARK   18  A    between atoms: C_51  and  O_52
REMARK   19  A    between atoms: C_53  and  O_54
REMARK   20  A    between atoms: C_55  and  O_56
REMARK   21  A    between atoms: C_57  and  O_58
REMARK   22  A    between atoms: C_59  and  O_60
REMARK   23  A    between atoms: C_61  and  O_62
REMARK   24  A    between atoms: C_63  and  O_64
REMARK                            x       y       z     vdW  Elec       q    Type
REMARK                         _______ _______ _______ _____ _____    ______ ____
ROOT
ATOM      1  C   UNL     1       0.595   1.018  -0.952  0.00  0.00    +0.000 C 
ATOM      2  C   UNL     1       0.524  -0.508  -0.859  0.00  0.00    +0.000 C 
ATOM      3  O   UNL     1      -0.287  -0.879   0.258  0.00  0.00    +0.000 OA
ATOM      4  C   UNL     1      -1.637  -0.420   0.177  0.00  0.00    +0.000 C 
ATOM      5  C   UNL     1      -1.653   1.110   0.126  0.00  0.00    +0.000 C 
ATOM      6  C   UNL     1      -0.825   1.581  -1.073  0.00  0.00    +0.000 C 
ENDROOT
BRANCH   5   7
ATOM      7  O   UNL     1      -1.100   1.633   1.324  0.00  0.00    +0.000 OA
ATOM      8  H   UNL     1      -0.158   1.313   1.424  0.00  0.00    +0.000 HD
ENDBRANCH   5   7
BRANCH   6   9
ATOM      9  O   UNL     1      -0.777   3.000  -1.095  0.00  0.00    +0.000 OA
BRANCH   9  10
ATOM     10  C   UNL     1      -0.183   3.473   0.105  0.00  0.00    +0.000 C 
ATOM     11  O   UNL     1      -1.019   2.968   1.284  0.00  0.00    +0.000 OA
ATOM     12  C   UNL     1      -1.013   1.539   1.294  0.00  0.00    +0.000 C 
ATOM     13  C   UNL     1       0.285   0.963   1.449  0.00  0.00    +0.000 C 
ATOM     14  C   UNL     1       1.173   1.386   0.276  0.00  0.00    +0.000 C 
ATOM     15  C   UNL     1       1.239   2.915   0.223  0.00  0.00    +0.000 C 
BRANCH  15  16
ATOM     16  O   UNL     1       2.008   3.323  -0.900  0.00  0.00    +0.000 OA
ATOM     17  H   UNL     1       1.584   2.978  -1.737  0.00  0.00    +0.000 HD
ENDBRANCH  15  16
BRANCH  14  18
ATOM     18  O   UNL     1       0.631   0.888  -0.938  0.00  0.00    +0.000 OA
ATOM     19  H   UNL     1      -0.289   1.256  -1.068  0.00  0.00    +0.000 HD
ENDBRANCH  14  18
BRANCH  13  20
ATOM     20  O   UNL     1       0.175  -0.453   1.472  0.00  0.00    +0.000 OA
ATOM     21  H   UNL     1      -0.231  -0.770   0.615  0.00  0.00    +0.000 HD
ENDBRANCH  13  20
BRANCH  12  22
ATOM     22  C   UNL     1      -1.534   1.088  -0.060  0.00  0.00    +0.000 C 
BRANCH  22  23
ATOM     23  O   UNL     1      -1.579  -0.330  -0.102  0.00  0.00    +0.000 OA
ATOM     24  H   UNL     1      -0.659  -0.697   0.039  0.00  0.00    +0.000 HD
ENDBRANCH  22  23
ENDBRANCH  12  22
ENDBRANCH   9  10
ENDBRANCH   6   9
BRANCH   2  25
ATOM     25  O   UNL     1      -0.045  -1.029  -2.051  0.00  0.00    +0.000 OA
BRANCH  25  26
ATOM     26  C   UNL     1      -1.353  -0.503  -2.220  0.00  0.00    +0.000 C 
ATOM     27  C   UNL     1      -2.257  -1.095  -1.136  0.00  0.00    +0.000 C 
ATOM     28  C   UNL     1      -2.033  -0.409   0.098  0.00  0.00    +0.000 C 
ATOM     29  C   UNL     1      -2.328   0.988   0.050  0.00  0.00    +0.000 C 
ATOM     30  C   UNL     1      -3.784   1.185  -0.339  0.00  0.00    +0.000 C 
ATOM     31  C   UNL     1      -1.427   1.664  -0.986  0.00  0.00    +0.000 C 
ATOM     32  C   UNL     1       0.028   1.523  -0.568  0.00  0.00    +0.000 C 
ATOM     33  C   UNL     1       0.919   2.194  -1.600  0.00  0.00    +0.000 C 
ATOM     34  C   UNL     1       0.560   3.668  -1.697  0.00  0.00    +0.000 C 
ATOM     35  C   UNL     1      -0.810   3.672  -2.355  0.00  0.00    +0.000 C 
ATOM     36  C   UNL     1       0.465   4.248  -0.490  0.00  0.00    +0.000 C 
ATOM     37  C   UNL     1       0.487   5.606  -0.350  0.00  0.00    +0.000 C 
ATOM     38  C   UNL     1       0.620   6.393  -1.458  0.00  0.00    +0.000 C 
ATOM     39  C   UNL     1       0.722   5.738  -2.770  0.00  0.00    +0.000 C 
ATOM     40  C   UNL     1       0.850   6.475  -3.906  0.00  0.00    +0.000 C 
ATOM     41  C   UNL     1       0.942   5.871  -5.309  0.00  0.00    +0.000 C 
ATOM     42  C   UNL     1      -0.121   6.381  -6.117  0.00  0.00    +0.000 C 
ATOM     43  C   UNL     1      -0.093   7.799  -6.290  0.00  0.00    +0.000 C 
ATOM     44  C   UNL     1      -0.226   8.482  -4.927  0.00  0.00    +0.000 C 
ATOM     45  C   UNL     1      -1.568   8.128  -4.307  0.00  0.00    +0.000 C 
ATOM     46  O   UNL     1      -0.142   9.890  -5.090  0.00  0.00    +0.000 OA
ATOM     47  C   UNL     1       2.277   6.241  -5.934  0.00  0.00    +0.000 C 
ATOM     48  O   UNL     1       2.581   7.463  -6.106  0.00  0.00    +0.000 OA
ATOM     49  C   UNL     1       0.906   8.003  -4.013  0.00  0.00    +0.000 C 
ATOM     50  C   UNL     1       0.747   8.620  -2.632  0.00  0.00    +0.000 C 
ATOM     51  C   UNL     1       0.828   4.358  -5.218  0.00  0.00    +0.000 C 
ATOM     52  C   UNL     1       2.081   4.028  -3.310  0.00  0.00    +0.000 C 
ATOM     53  C   UNL     1       0.687   4.390  -2.824  0.00  0.00    +0.000 C 
ATOM     54  C   UNL     1      -0.488   4.019  -3.714  0.00  0.00    +0.000 C 
ATOM     55  C   UNL     1      -1.639   0.997  -2.348  0.00  0.00    +0.000 C 
ATOM     56  C   UNL     1      -0.700   1.612  -3.373  0.00  0.00    +0.000 C 
ATOM     57  C   UNL     1      -3.075   1.205  -2.799  0.00  0.00    +0.000 C 
BRANCH  49  58
ATOM     58  O   UNL     1       2.157   8.396  -4.558  0.00  0.00    +0.000 OA
ATOM     59  H   UNL     1       2.895   8.083  -3.960  0.00  0.00    +0.000 HD
ENDBRANCH  49  58
ENDBRANCH  25  26
ENDBRANCH   2  25
BRANCH   1  60
ATOM     60  O   UNL     1       1.286   2.257  -0.886  0.00  0.00    +0.000 OA
BRANCH  60  64
ATOM     61  C   UNL     1       0.995   0.096   0.028  0.00  0.00    +0.000 C 
ATOM     62  C   UNL     1       0.488   0.828   1.260  0.00  0.00    +0.000 C 
ATOM     63  O   UNL     1       1.138   2.207   1.395  0.00  0.00    +0.000 OA
ATOM     64  C   UNL     1       0.833   2.993   0.241  0.00  0.00    +0.000 C 
ATOM     65  C   UNL     1      -0.563   3.227   0.047  0.00  0.00    +0.000 C 
ATOM     66  C   UNL     1      -1.282   1.889  -0.143  0.00  0.00    +0.000 C 
ATOM     67  C   UNL     1      -1.024   1.002   1.079  0.00  0.00    +0.000 C 
BRANCH  67  68
ATOM     68  O   UNL     1      -1.632  -0.267   0.887  0.00  0.00    +0.000 OA
ATOM     69  H   UNL     1      -1.247  -0.702   0.072  0.00  0.00    +0.000 HD
ENDBRANCH  67  68
BRANCH  66  70
ATOM     70  O   UNL     1      -0.794   1.246  -1.312  0.00  0.00    +0.000 OA
ATOM     71  H   UNL     1       0.188   1.086  -1.219  0.00  0.00    +0.000 HD
ENDBRANCH  66  70
BRANCH  65  72
ATOM     72  O   UNL     1      -0.752   4.034  -1.105  0.00  0.00    +0.000 OA
ATOM     73  H   UNL     1      -0.378   3.566  -1.906  0.00  0.00    +0.000 HD
ENDBRANCH  65  72
ENDBRANCH  60  64
ENDBRANCH   1  60
TORSDOF 16
