REMARK  Name = 
REMARK  4 active torsions:
REMARK  status: ('A' for Active; 'I' for Inactive)
REMARK    1  A    between atoms: O_1  and  C_2
REMARK    2  A    between atoms: C_4  and  C_5
REMARK    3  A    between atoms: C_7  and  C_8
REMARK    4  A    between atoms: C_15  and  C_16
REMARK                            x       y       z     vdW  Elec       q    Type
REMARK                         _______ _______ _______ _____ _____    ______ ____
ROOT
ATOM      1  C   UNL     1      -3.995  -0.078   0.044  0.00  0.00    +0.000 A 
ATOM      2  N   UNL     1      -4.723  -0.710   1.057  0.00  0.00    +0.000 NA
ATOM      3  C   UNL     1      -5.975  -0.614   0.694  0.00  0.00    +0.000 A 
ATOM      4  N   UNL     1      -6.114   0.035  -0.514  0.00  0.00    +0.000 N 
ATOM      5  C   UNL     1      -4.843   0.388  -0.915  0.00  0.00    +0.000 A 
ATOM      6  H   UNL     1      -6.985   0.218  -1.012  0.00  0.00    +0.000 HD
ENDROOT
BRANCH   1   9
ATOM      7  C   UNL     1      -0.274  -0.925   0.000  0.00  0.00    +0.000 A 
ATOM      8  C   UNL     1      -1.676  -1.052   0.022  0.00  0.00    +0.000 A 
ATOM      9  C   UNL     1      -2.482   0.069   0.018  0.00  0.00    +0.000 A 
ATOM     10  C   UNL     1      -1.910   1.317  -0.010  0.00  0.00    +0.000 A 
ATOM     11  C   UNL     1      -0.536   1.495  -0.025  0.00  0.00    +0.000 A 
ATOM     12  C   UNL     1       0.268   0.346  -0.010  0.00  0.00    +0.000 A 
ATOM     13 CL   UNL     1       1.995   0.477   0.012  0.00  0.00    +0.000 Cl
BRANCH   7  14
ATOM     14  O   UNL     1       0.540  -1.995  -0.023  0.00  0.00    +0.000 OA
ATOM     15  H   UNL     1       0.154  -2.917  -0.016  0.00  0.00    +0.000 HD
ENDBRANCH   7  14
ENDBRANCH   1   9
BRANCH   3  16
ATOM     16  C   UNL     1      -7.139  -1.156   1.507  0.00  0.00    +0.000 A 
ATOM     17  C   UNL     1      -8.004  -2.086   0.955  0.00  0.00    +0.000 A 
ATOM     18  C   UNL     1      -9.210  -2.248   1.678  0.00  0.00    +0.000 A 
ATOM     19  C   UNL     1      -9.391  -1.863   2.928  0.00  0.00    +0.000 A 
ATOM     20  C   UNL     1      -8.464  -0.996   3.438  0.00  0.00    +0.000 A 
ATOM     21  C   UNL     1      -7.324  -0.688   2.735  0.00  0.00    +0.000 A 
ENDBRANCH   3  16
BRANCH   5  22
ATOM     22  C   UNL     1      -4.463   1.145  -2.178  0.00  0.00    +0.000 A 
ATOM     23  C   UNL     1      -3.622   0.608  -3.156  0.00  0.00    +0.000 A 
ATOM     24  C   UNL     1      -3.469   1.271  -4.357  0.00  0.00    +0.000 A 
ATOM     25  N   UNL     1      -4.084   2.434  -4.624  0.00  0.00    +0.000 NA
ATOM     26  C   UNL     1      -4.871   2.953  -3.677  0.00  0.00    +0.000 A 
ATOM     27  C   UNL     1      -5.099   2.347  -2.463  0.00  0.00    +0.000 A 
ENDBRANCH   5  22
TORSDOF 4
