REMARK  Name = 
REMARK  11 active torsions:
REMARK  status: ('A' for Active; 'I' for Inactive)
REMARK    1  A    between atoms: C_1  and  S_2
REMARK    2  A    between atoms: S_2  and  C_5
REMARK    3  A    between atoms: C_5  and  C_6
REMARK    4  A    between atoms: C_6  and  N_7
REMARK    5  A    between atoms: N_7  and  C_8
REMARK    6  A    between atoms: C_8  and  C_9
REMARK    7  A    between atoms: C_12  and  C_13
REMARK    8  A    between atoms: N_21  and  C_22
REMARK    9  A    between atoms: C_25  and  O_26
REMARK   10  A    between atoms: O_26  and  C_27
REMARK   11  A    between atoms: C_27  and  C_28
REMARK                            x       y       z     vdW  Elec       q    Type
REMARK                         _______ _______ _______ _____ _____    ______ ____
ROOT
ATOM      1  C   UNL     1      -4.362   3.296  -3.590  0.00  0.00    +0.000 A 
ATOM      2  C   UNL     1      -5.307   3.223  -2.548  0.00  0.00    +0.000 A 
ATOM      3  C   UNL     1      -6.414   4.025  -2.551  0.00  0.00    +0.000 A 
ATOM      4  C   UNL     1      -6.611   4.961  -3.591  0.00  0.00    +0.000 A 
ATOM      5  N   UNL     1      -7.709   5.783  -3.569  0.00  0.00    +0.000 NA
ATOM      6  C   UNL     1      -7.829   6.620  -4.561  0.00  0.00    +0.000 A 
ATOM      7  N   UNL     1      -6.984   6.756  -5.629  0.00  0.00    +0.000 NA
ATOM      8  C   UNL     1      -5.938   5.967  -5.670  0.00  0.00    +0.000 A 
ATOM      9  N   UNL     1      -5.017   6.061  -6.813  0.00  0.00    +0.000 N 
ATOM     10  C   UNL     1      -5.667   5.022  -4.640  0.00  0.00    +0.000 A 
ATOM     11  C   UNL     1      -4.538   4.172  -4.623  0.00  0.00    +0.000 A 
ATOM     12  H   UNL     1      -4.199   5.454  -6.859  0.00  0.00    +0.000 HD
ENDROOT
BRANCH   9  13
ATOM     13  C   UNL     1      -5.276   7.030  -7.888  0.00  0.00    +0.000 A 
ATOM     14  C   UNL     1      -5.327   8.374  -7.556  0.00  0.00    +0.000 A 
ATOM     15  C   UNL     1      -5.402   9.342  -8.551  0.00  0.00    +0.000 A 
ATOM     16  C   UNL     1      -5.450   8.960  -9.888  0.00  0.00    +0.000 A 
ATOM     17  C   UNL     1      -5.430   7.610 -10.198  0.00  0.00    +0.000 A 
ATOM     18 CL   UNL     1      -5.506   7.143 -11.869  0.00  0.00    +0.000 Cl
ATOM     19  C   UNL     1      -5.314   6.630  -9.223  0.00  0.00    +0.000 A 
BRANCH  16  20
ATOM     20  O   UNL     1      -5.517   9.936 -10.916  0.00  0.00    +0.000 OA
BRANCH  20  21
ATOM     21  C   UNL     1      -5.565   9.532 -12.277  0.00  0.00    +0.000 C 
BRANCH  21  22
ATOM     22  C   UNL     1      -4.317   8.732 -12.612  0.00  0.00    +0.000 A 
ATOM     23  C   UNL     1      -3.153   9.368 -12.929  0.00  0.00    +0.000 A 
ATOM     24  C   UNL     1      -2.038   8.607 -13.248  0.00  0.00    +0.000 A 
ATOM     25  C   UNL     1      -2.106   7.223 -13.257  0.00  0.00    +0.000 A 
ATOM     26  C   UNL     1      -3.273   6.645 -12.922  0.00  0.00    +0.000 A 
ATOM     27  F   UNL     1      -3.344   5.290 -12.925  0.00  0.00    +0.000 F 
ATOM     28  C   UNL     1      -4.383   7.348 -12.598  0.00  0.00    +0.000 A 
ENDBRANCH  21  22
ENDBRANCH  20  21
ENDBRANCH  16  20
ENDBRANCH   9  13
BRANCH   1  32
ATOM     29  C   UNL     1      -1.084   1.704  -3.544  0.00  0.00    +0.000 A 
ATOM     30  C   UNL     1      -1.828   0.589  -3.546  0.00  0.00    +0.000 A 
ATOM     31  C   UNL     1      -3.172   1.038  -3.561  0.00  0.00    +0.000 A 
ATOM     32  C   UNL     1      -3.139   2.394  -3.565  0.00  0.00    +0.000 A 
ATOM     33  O   UNL     1      -1.837   2.832  -3.543  0.00  0.00    +0.000 OA
BRANCH  29  34
ATOM     34  C   UNL     1       0.436   1.704  -3.544  0.00  0.00    +0.000 C 
BRANCH  34  35
ATOM     35  N   UNL     1       0.926   0.591  -2.718  0.00  0.00    +0.000 NA
ATOM     36  H   UNL     1       0.586   0.701  -1.763  0.00  0.00    +0.000 HD
BRANCH  35  37
ATOM     37  C   UNL     1       0.436  -0.681  -3.269  0.00  0.00    +0.000 C 
BRANCH  37  38
ATOM     38  C   UNL     1       0.942  -1.832  -2.415  0.00  0.00    +0.000 C 
BRANCH  38  40
ATOM     39  C   UNL     1       0.942  -0.070  -0.042  0.00  0.00    +0.000 C 
ATOM     40  S   UNL     1       0.339  -1.636  -0.720  0.00  0.00    +0.000 S 
ATOM     41  O   UNL     1       0.849  -2.795   0.140  0.00  0.00    +0.000 OA
ATOM     42  O   UNL     1      -1.192  -1.636  -0.720  0.00  0.00    +0.000 OA
ENDBRANCH  38  40
ENDBRANCH  37  38
ENDBRANCH  35  37
ENDBRANCH  34  35
ENDBRANCH  29  34
ENDBRANCH   1  32
TORSDOF 10
