
 OpenBabel03132512083D

 98 99  0  0  0  0  0  0  0  0999 V2000
    1.0802   -0.0273    0.0531 C   0  0  0  0  0  0  0  0  0  0  0  0
    0.5736    1.1130   -0.8149 C   0  0  0  0  0  0  0  0  0  0  0  0
   -0.3003    0.8181   -2.0231 C   0  0  0  0  0  0  0  0  0  0  0  0
   -0.7538    1.8387   -2.7999 C   0  0  0  0  0  0  0  0  0  0  0  0
   -1.6277    1.5438   -4.0081 C   0  0  0  0  0  0  0  0  0  0  0  0
   -2.0811    2.5644   -4.7850 C   0  0  0  0  0  0  0  0  0  0  0  0
   -2.9550    2.2696   -5.9932 C   0  0  0  0  0  0  0  0  0  0  0  0
   -1.7139    3.9996   -4.4447 C   0  0  0  0  0  0  0  0  0  0  0  0
   -0.9318    4.2635   -3.3633 C   0  0  0  0  0  0  0  0  0  0  0  0
   -0.5646    5.6987   -3.0231 C   0  0  0  0  0  0  0  0  0  0  0  0
    0.7431    5.9841   -2.7523 C   0  0  0  0  0  0  0  0  0  0  0  0
    1.7842    4.8766   -2.7466 C   0  0  0  0  0  0  0  0  0  0  0  0
    1.1073    7.2735   -2.4865 C   0  0  0  0  0  0  0  0  0  0  0  0
    0.2080    8.2705   -2.4971 C   0  0  0  0  0  0  0  0  0  0  0  0
    0.6194    9.0329   -3.6222 O   0  0  0  0  0  0  0  0  0  0  0  0
   -1.0917    8.0522   -2.7624 C   0  0  0  0  0  0  0  0  0  0  0  0
   -1.5328    6.8046   -3.0294 C   0  0  0  0  0  0  0  0  0  0  0  0
   -2.4655    6.4864   -1.8721 C   0  0  0  0  0  0  0  0  0  0  0  0
   -2.1643    6.8391   -4.4116 C   0  0  0  0  0  0  0  0  0  0  0  0
    0.9022    2.3975   -0.5103 C   0  0  0  0  0  0  0  0  0  0  0  0
    1.7761    2.6923    0.6979 C   0  0  0  0  0  0  0  0  0  0  0  0
    2.1047    3.9768    1.0024 C   0  0  0  0  0  0  0  0  0  0  0  0
    2.9786    4.2717    2.2106 C   0  0  0  0  0  0  0  0  0  0  0  0
    3.3072    5.5562    2.5152 C   0  0  0  0  0  0  0  0  0  0  0  0
    4.1811    5.8511    3.7234 C   0  0  0  0  0  0  0  0  0  0  0  0
    2.8006    6.6965    1.6472 C   0  0  0  0  0  0  0  0  0  0  0  0
    2.0185    6.4326    0.5659 C   0  0  0  0  0  0  0  0  0  0  0  0
    1.5118    7.5730   -0.3021 C   0  0  0  0  0  0  0  0  0  0  0  0
    0.7297    7.3090   -1.3835 C   0  0  0  0  0  0  0  0  0  0  0  0
    0.2230    8.4494   -2.2514 C   0  0  0  0  0  0  0  0  0  0  0  0
    0.3625    5.8739   -1.7237 C   0  0  0  0  0  0  0  0  0  0  0  0
    0.8159    4.8533   -0.9469 C   0  0  0  0  0  0  0  0  0  0  0  0
    0.4487    3.4181   -1.2872 C   0  0  0  0  0  0  0  0  0  0  0  0
    1.2758    2.2030   -1.2745 C   0  0  0  0  0  0  0  0  0  0  0  0
    2.4440    2.0456   -2.2340 C   0  0  0  0  0  0  0  0  0  0  0  0
    0.9680    1.2192   -0.3789 C   0  0  0  0  0  0  0  0  0  0  0  0
   -0.0952    1.3862    0.4622 C   0  0  0  0  0  0  0  0  0  0  0  0
    0.5296    1.4637    1.7350 O   0  0  0  0  0  0  0  0  0  0  0  0
   -0.8390    2.5038    0.4357 C   0  0  0  0  0  0  0  0  0  0  0  0
   -0.5813    3.5086   -0.4193 C   0  0  0  0  0  0  0  0  0  0  0  0
   -1.7991    3.5076   -1.3290 C   0  0  0  0  0  0  0  0  0  0  0  0
   -0.3329    4.7477    0.4253 C   0  0  0  0  0  0  0  0  0  0  0  0
    0.7236   -0.9578   -0.3366 H   0  0  0  0  0  0  0  0  0  0  0  0
    0.7236    0.1004    1.0538 H   0  0  0  0  0  0  0  0  0  0  0  0
    2.1502   -0.0273    0.0531 H   0  0  0  0  0  0  0  0  0  0  0  0
   -0.5588   -0.1922   -2.2626 H   0  0  0  0  0  0  0  0  0  0  0  0
   -0.4953    2.8490   -2.5604 H   0  0  0  0  0  0  0  0  0  0  0  0
   -1.8862    0.5335   -4.2477 H   0  0  0  0  0  0  0  0  0  0  0  0
   -3.9001    2.7577   -5.8775 H   0  0  0  0  0  0  0  0  0  0  0  0
   -2.4734    2.6299   -6.8781 H   0  0  0  0  0  0  0  0  0  0  0  0
   -3.1066    1.2135   -6.0745 H   0  0  0  0  0  0  0  0  0  0  0  0
   -2.0706    4.8023   -5.0557 H   0  0  0  0  0  0  0  0  0  0  0  0
   -0.5751    3.4608   -2.7523 H   0  0  0  0  0  0  0  0  0  0  0  0
    2.5330    5.0873   -3.4813 H   0  0  0  0  0  0  0  0  0  0  0  0
    2.2391    4.8197   -1.7798 H   0  0  0  0  0  0  0  0  0  0  0  0
    1.3133    3.9433   -2.9748 H   0  0  0  0  0  0  0  0  0  0  0  0
    1.7299    7.5148   -3.3226 H   0  0  0  0  0  0  0  0  0  0  0  0
    1.5427    7.2693   -1.5091 H   0  0  0  0  0  0  0  0  0  0  0  0
    0.2448    8.7179   -1.5258 H   0  0  0  0  0  0  0  0  0  0  0  0
    0.5275    8.4806   -4.4507 H   0  0  0  0  0  0  0  0  0  0  0  0
   -1.5710    8.2855   -1.8347 H   0  0  0  0  0  0  0  0  0  0  0  0
   -1.3369    8.6534   -3.6129 H   0  0  0  0  0  0  0  0  0  0  0  0
   -3.2392    7.2240   -1.8244 H   0  0  0  0  0  0  0  0  0  0  0  0
   -2.9020    5.5209   -2.0209 H   0  0  0  0  0  0  0  0  0  0  0  0
   -1.9120    6.4903   -0.9564 H   0  0  0  0  0  0  0  0  0  0  0  0
   -1.4040    6.9996   -5.1471 H   0  0  0  0  0  0  0  0  0  0  0  0
   -2.6548    5.9076   -4.6029 H   0  0  0  0  0  0  0  0  0  0  0  0
   -2.8786    7.6344   -4.4576 H   0  0  0  0  0  0  0  0  0  0  0  0
    0.5455    3.2002   -1.1213 H   0  0  0  0  0  0  0  0  0  0  0  0
    2.1327    1.8896    1.3089 H   0  0  0  0  0  0  0  0  0  0  0  0
    1.7481    4.7796    0.3914 H   0  0  0  0  0  0  0  0  0  0  0  0
    3.3353    3.4690    2.8216 H   0  0  0  0  0  0  0  0  0  0  0  0
    5.0728    6.3498    3.4055 H   0  0  0  0  0  0  0  0  0  0  0  0
    3.6461    6.4776    4.4061 H   0  0  0  0  0  0  0  0  0  0  0  0
    4.4396    4.9334    4.2091 H   0  0  0  0  0  0  0  0  0  0  0  0
    3.0591    7.7068    1.8867 H   0  0  0  0  0  0  0  0  0  0  0  0
    1.7600    5.4223    0.3263 H   0  0  0  0  0  0  0  0  0  0  0  0
    1.7703    8.5833   -0.0626 H   0  0  0  0  0  0  0  0  0  0  0  0
    0.5797    8.3216   -3.2521 H   0  0  0  0  0  0  0  0  0  0  0  0
   -0.8470    8.4494   -2.2514 H   0  0  0  0  0  0  0  0  0  0  0  0
    0.5797    9.3799   -1.8617 H   0  0  0  0  0  0  0  0  0  0  0  0
   -0.2527    5.6663   -2.5742 H   0  0  0  0  0  0  0  0  0  0  0  0
    1.4311    5.0608   -0.0964 H   0  0  0  0  0  0  0  0  0  0  0  0
    0.3995    3.1975   -2.3330 H   0  0  0  0  0  0  0  0  0  0  0  0
    3.3491    1.9224   -1.6768 H   0  0  0  0  0  0  0  0  0  0  0  0
    2.2853    1.1860   -2.8512 H   0  0  0  0  0  0  0  0  0  0  0  0
    2.5200    2.9175   -2.8496 H   0  0  0  0  0  0  0  0  0  0  0  0
    1.5546    0.3253   -0.3363 H   0  0  0  0  0  0  0  0  0  0  0  0
   -0.7638    0.5733    0.2695 H   0  0  0  0  0  0  0  0  0  0  0  0
    1.1213    2.2693    1.7674 H   0  0  0  0  0  0  0  0  0  0  0  0
   -0.6117    2.9487    1.3819 H   0  0  0  0  0  0  0  0  0  0  0  0
   -1.8430    2.1912    0.2374 H   0  0  0  0  0  0  0  0  0  0  0  0
   -2.6842    3.6287   -0.7401 H   0  0  0  0  0  0  0  0  0  0  0  0
   -1.7227    4.3140   -2.0281 H   0  0  0  0  0  0  0  0  0  0  0  0
   -1.8476    2.5794   -1.8590 H   0  0  0  0  0  0  0  0  0  0  0  0
    0.5958    4.6438    0.9464 H   0  0  0  0  0  0  0  0  0  0  0  0
   -0.2921    5.6089   -0.2083 H   0  0  0  0  0  0  0  0  0  0  0  0
   -1.1277    4.8625    1.1325 H   0  0  0  0  0  0  0  0  0  0  0  0
  1  2  1  0  0  0  0
  1 43  1  0  0  0  0
  1 44  1  0  0  0  0
  1 45  1  0  0  0  0
  2  3  1  0  0  0  0
  2 20  2  0  0  0  0
  3  4  2  0  0  0  0
  3 46  1  0  0  0  0
  4  5  1  0  0  0  0
  4 47  1  0  0  0  0
  5  6  2  0  0  0  0
  5 48  1  0  0  0  0
  6  7  1  0  0  0  0
  6  8  1  0  0  0  0
  7 49  1  0  0  0  0
  7 50  1  0  0  0  0
  7 51  1  0  0  0  0
  8  9  2  0  0  0  0
  8 52  1  0  0  0  0
  9 10  1  0  0  0  0
  9 53  1  0  0  0  0
 10 11  2  0  0  0  0
 10 17  1  0  0  0  0
 11 12  1  0  0  0  0
 11 13  1  0  0  0  0
 12 54  1  0  0  0  0
 12 55  1  0  0  0  0
 12 56  1  0  0  0  0
 13 14  1  0  0  0  0
 13 57  1  0  0  0  0
 13 58  1  0  0  0  0
 14 15  1  0  0  0  0
 14 16  1  0  0  0  0
 14 59  1  0  0  0  0
 15 60  1  0  0  0  0
 16 17  1  0  0  0  0
 16 61  1  0  0  0  0
 16 62  1  0  0  0  0
 17 18  1  0  0  0  0
 17 19  1  0  0  0  0
 18 63  1  0  0  0  0
 18 64  1  0  0  0  0
 18 65  1  0  0  0  0
 19 66  1  0  0  0  0
 19 67  1  0  0  0  0
 19 68  1  0  0  0  0
 20 21  1  0  0  0  0
 20 69  1  0  0  0  0
 21 22  2  0  0  0  0
 21 70  1  0  0  0  0
 22 23  1  0  0  0  0
 22 71  1  0  0  0  0
 23 24  2  0  0  0  0
 23 72  1  0  0  0  0
 24 25  1  0  0  0  0
 24 26  1  0  0  0  0
 25 73  1  0  0  0  0
 25 74  1  0  0  0  0
 25 75  1  0  0  0  0
 26 27  2  0  0  0  0
 26 76  1  0  0  0  0
 27 28  1  0  0  0  0
 27 77  1  0  0  0  0
 28 29  2  0  0  0  0
 28 78  1  0  0  0  0
 29 30  1  0  0  0  0
 29 31  1  0  0  0  0
 30 79  1  0  0  0  0
 30 80  1  0  0  0  0
 30 81  1  0  0  0  0
 31 32  2  0  0  0  0
 31 82  1  0  0  0  0
 32 33  1  0  0  0  0
 32 83  1  0  0  0  0
 33 34  1  0  0  0  0
 33 40  1  0  0  0  0
 33 84  1  0  0  0  0
 34 35  1  0  0  0  0
 34 36  2  0  0  0  0
 35 85  1  0  0  0  0
 35 86  1  0  0  0  0
 35 87  1  0  0  0  0
 36 37  1  0  0  0  0
 36 88  1  0  0  0  0
 37 38  1  0  0  0  0
 37 39  1  0  0  0  0
 37 89  1  0  0  0  0
 38 90  1  0  0  0  0
 39 40  1  0  0  0  0
 39 91  1  0  0  0  0
 39 92  1  0  0  0  0
 40 41  1  0  0  0  0
 40 42  1  0  0  0  0
 41 93  1  0  0  0  0
 41 94  1  0  0  0  0
 41 95  1  0  0  0  0
 42 96  1  0  0  0  0
 42 97  1  0  0  0  0
 42 98  1  0  0  0  0
M  END
