
 OpenBabel03132514253D

 98 99  0  0  0  0  0  0  0  0999 V2000
    0.9302    0.0607    0.0380 C   0  0  0  0  0  0  0  0  0  0  0  0
    0.4235   -0.5526   -1.2572 C   0  0  0  0  0  0  0  0  0  0  0  0
   -0.4504   -1.7957   -1.2187 C   0  0  0  0  0  0  0  0  0  0  0  0
   -0.9038   -2.3446   -2.3779 C   0  0  0  0  0  0  0  0  0  0  0  0
   -1.7777   -3.5877   -2.3393 C   0  0  0  0  0  0  0  0  0  0  0  0
   -2.2312   -4.1366   -3.4985 C   0  0  0  0  0  0  0  0  0  0  0  0
   -3.1051   -5.3796   -3.4600 C   0  0  0  0  0  0  0  0  0  0  0  0
   -1.8640   -3.5068   -4.8323 C   0  0  0  0  0  0  0  0  0  0  0  0
   -1.0819   -2.3942   -4.8668 C   0  0  0  0  0  0  0  0  0  0  0  0
   -0.7147   -1.7644   -6.2006 C   0  0  0  0  0  0  0  0  0  0  0  0
    0.5357   -1.2422   -6.3702 C   0  0  0  0  0  0  0  0  0  0  0  0
    1.6011   -1.4422   -5.3047 C   0  0  0  0  0  0  0  0  0  0  0  0
    0.8205   -0.5387   -7.5059 C   0  0  0  0  0  0  0  0  0  0  0  0
   -0.1003   -0.3586   -8.4664 C   0  0  0  0  0  0  0  0  0  0  0  0
    0.4331   -1.1209   -9.5392 O   0  0  0  0  0  0  0  0  0  0  0  0
   -1.3455   -0.8535   -8.3586 C   0  0  0  0  0  0  0  0  0  0  0  0
   -1.7077   -1.5556   -7.2639 C   0  0  0  0  0  0  0  0  0  0  0  0
   -2.7757   -0.6949   -6.6090 C   0  0  0  0  0  0  0  0  0  0  0  0
   -2.1503   -2.9298   -7.7394 C   0  0  0  0  0  0  0  0  0  0  0  0
    0.7522    0.0111   -2.4509 C   0  0  0  0  0  0  0  0  0  0  0  0
    1.6260    1.2541   -2.4895 C   0  0  0  0  0  0  0  0  0  0  0  0
    1.9547    1.8178   -3.6832 C   0  0  0  0  0  0  0  0  0  0  0  0
    2.8285    3.0609   -3.7217 C   0  0  0  0  0  0  0  0  0  0  0  0
    3.1572    3.6246   -4.9154 C   0  0  0  0  0  0  0  0  0  0  0  0
    4.0311    4.8677   -4.9540 C   0  0  0  0  0  0  0  0  0  0  0  0
    2.6505    3.0113   -6.2107 C   0  0  0  0  0  0  0  0  0  0  0  0
    1.8684    1.8987   -6.1762 C   0  0  0  0  0  0  0  0  0  0  0  0
    1.3617    1.2854   -7.4714 C   0  0  0  0  0  0  0  0  0  0  0  0
    0.5796    0.1729   -7.4369 C   0  0  0  0  0  0  0  0  0  0  0  0
    0.0729   -0.4404   -8.7321 C   0  0  0  0  0  0  0  0  0  0  0  0
    0.2124   -0.4569   -6.1031 C   0  0  0  0  0  0  0  0  0  0  0  0
    0.6659    0.0920   -4.9439 C   0  0  0  0  0  0  0  0  0  0  0  0
    0.2987   -0.5378   -3.6101 C   0  0  0  0  0  0  0  0  0  0  0  0
   -0.2895   -1.8547   -3.8937 C   0  0  0  0  0  0  0  0  0  0  0  0
   -1.5388   -1.9820   -4.7502 C   0  0  0  0  0  0  0  0  0  0  0  0
    0.3146   -2.9608   -3.3682 C   0  0  0  0  0  0  0  0  0  0  0  0
    1.4294   -2.8119   -2.5930 C   0  0  0  0  0  0  0  0  0  0  0  0
    2.4371   -3.4250   -3.3838 O   0  0  0  0  0  0  0  0  0  0  0  0
    1.9522   -1.6002   -2.3453 C   0  0  0  0  0  0  0  0  0  0  0  0
    1.4054   -0.4760   -2.8396 C   0  0  0  0  0  0  0  0  0  0  0  0
    0.9179    0.2462   -1.5941 C   0  0  0  0  0  0  0  0  0  0  0  0
    2.4803    0.2024   -3.6730 C   0  0  0  0  0  0  0  0  0  0  0  0
    0.5735   -0.5131    0.8678 H   0  0  0  0  0  0  0  0  0  0  0  0
    0.5735    1.0661    0.1200 H   0  0  0  0  0  0  0  0  0  0  0  0
    2.0002    0.0607    0.0380 H   0  0  0  0  0  0  0  0  0  0  0  0
   -0.7089   -2.2390   -0.2798 H   0  0  0  0  0  0  0  0  0  0  0  0
   -0.6453   -1.9012   -3.3168 H   0  0  0  0  0  0  0  0  0  0  0  0
   -2.0362   -4.0310   -1.4004 H   0  0  0  0  0  0  0  0  0  0  0  0
   -4.0502   -5.1654   -3.9136 H   0  0  0  0  0  0  0  0  0  0  0  0
   -2.6235   -6.1709   -3.9956 H   0  0  0  0  0  0  0  0  0  0  0  0
   -3.2567   -5.6777   -2.4436 H   0  0  0  0  0  0  0  0  0  0  0  0
   -2.2206   -3.9385   -5.7441 H   0  0  0  0  0  0  0  0  0  0  0  0
   -0.7252   -1.9625   -3.9550 H   0  0  0  0  0  0  0  0  0  0  0  0
    2.4341   -1.9645   -5.7269 H   0  0  0  0  0  0  0  0  0  0  0  0
    1.9248   -0.4895   -4.9408 H   0  0  0  0  0  0  0  0  0  0  0  0
    1.1944   -2.0134   -4.4965 H   0  0  0  0  0  0  0  0  0  0  0  0
    1.5410   -1.1639   -7.9906 H   0  0  0  0  0  0  0  0  0  0  0  0
    1.1218    0.4379   -7.1890 H   0  0  0  0  0  0  0  0  0  0  0  0
   -0.2072    0.6994   -8.5848 H   0  0  0  0  0  0  0  0  0  0  0  0
    0.4698   -2.0852   -9.2769 H   0  0  0  0  0  0  0  0  0  0  0  0
   -1.9512    0.0261   -8.2937 H   0  0  0  0  0  0  0  0  0  0  0  0
   -1.4941   -1.4977   -9.1999 H   0  0  0  0  0  0  0  0  0  0  0  0
   -3.5717   -0.5242   -7.3034 H   0  0  0  0  0  0  0  0  0  0  0  0
   -3.1579   -1.1969   -5.7447 H   0  0  0  0  0  0  0  0  0  0  0  0
   -2.3494    0.2423   -6.3177 H   0  0  0  0  0  0  0  0  0  0  0  0
   -1.3042   -3.4672   -8.1140 H   0  0  0  0  0  0  0  0  0  0  0  0
   -2.5814   -3.4685   -6.9216 H   0  0  0  0  0  0  0  0  0  0  0  0
   -2.8768   -2.8211   -8.5174 H   0  0  0  0  0  0  0  0  0  0  0  0
    0.3955   -0.4207   -3.3627 H   0  0  0  0  0  0  0  0  0  0  0  0
    1.9827    1.6859   -1.5777 H   0  0  0  0  0  0  0  0  0  0  0  0
    1.5980    1.3861   -4.5949 H   0  0  0  0  0  0  0  0  0  0  0  0
    3.1852    3.4926   -2.8100 H   0  0  0  0  0  0  0  0  0  0  0  0
    4.9227    4.6598   -5.5077 H   0  0  0  0  0  0  0  0  0  0  0  0
    3.4961    5.6652   -5.4257 H   0  0  0  0  0  0  0  0  0  0  0  0
    4.2896    5.1530   -3.9557 H   0  0  0  0  0  0  0  0  0  0  0  0
    2.9090    3.4546   -7.1496 H   0  0  0  0  0  0  0  0  0  0  0  0
    1.6099    1.4554   -5.2373 H   0  0  0  0  0  0  0  0  0  0  0  0
    1.6202    1.7288   -8.4103 H   0  0  0  0  0  0  0  0  0  0  0  0
    0.4296   -1.4459   -8.8141 H   0  0  0  0  0  0  0  0  0  0  0  0
   -0.9971   -0.4404   -8.7321 H   0  0  0  0  0  0  0  0  0  0  0  0
    0.4296    0.1334   -9.5618 H   0  0  0  0  0  0  0  0  0  0  0  0
   -0.4027   -1.3320   -6.0760 H   0  0  0  0  0  0  0  0  0  0  0  0
    1.2810    0.9670   -4.9710 H   0  0  0  0  0  0  0  0  0  0  0  0
   -0.4569   -0.0398   -3.0392 H   0  0  0  0  0  0  0  0  0  0  0  0
   -1.3223   -2.5810   -5.6099 H   0  0  0  0  0  0  0  0  0  0  0  0
   -2.3167   -2.4448   -4.1797 H   0  0  0  0  0  0  0  0  0  0  0  0
   -1.8567   -1.0096   -5.0639 H   0  0  0  0  0  0  0  0  0  0  0  0
   -0.0817   -3.9356   -3.5620 H   0  0  0  0  0  0  0  0  0  0  0  0
    1.1952   -3.2406   -1.6410 H   0  0  0  0  0  0  0  0  0  0  0  0
    2.5446   -2.9175   -4.2387 H   0  0  0  0  0  0  0  0  0  0  0  0
    2.8850   -1.6459   -2.8674 H   0  0  0  0  0  0  0  0  0  0  0  0
    1.9584   -1.4881   -1.2812 H   0  0  0  0  0  0  0  0  0  0  0  0
    1.7391    0.3973   -0.9250 H   0  0  0  0  0  0  0  0  0  0  0  0
    0.5038    1.1934   -1.8702 H   0  0  0  0  0  0  0  0  0  0  0  0
    0.1676   -0.3437   -1.1104 H   0  0  0  0  0  0  0  0  0  0  0  0
    2.6631   -0.3732   -4.5563 H   0  0  0  0  0  0  0  0  0  0  0  0
    2.1525    1.1832   -3.9479 H   0  0  0  0  0  0  0  0  0  0  0  0
    3.3820    0.2748   -3.1015 H   0  0  0  0  0  0  0  0  0  0  0  0
  1  2  1  0  0  0  0
  1 43  1  0  0  0  0
  1 44  1  0  0  0  0
  1 45  1  0  0  0  0
  2  3  1  0  0  0  0
  2 20  2  0  0  0  0
  3  4  2  0  0  0  0
  3 46  1  0  0  0  0
  4  5  1  0  0  0  0
  4 47  1  0  0  0  0
  5  6  2  0  0  0  0
  5 48  1  0  0  0  0
  6  7  1  0  0  0  0
  6  8  1  0  0  0  0
  7 49  1  0  0  0  0
  7 50  1  0  0  0  0
  7 51  1  0  0  0  0
  8  9  2  0  0  0  0
  8 52  1  0  0  0  0
  9 10  1  0  0  0  0
  9 53  1  0  0  0  0
 10 11  2  0  0  0  0
 10 17  1  0  0  0  0
 11 12  1  0  0  0  0
 11 13  1  0  0  0  0
 12 54  1  0  0  0  0
 12 55  1  0  0  0  0
 12 56  1  0  0  0  0
 13 14  1  0  0  0  0
 13 57  1  0  0  0  0
 13 58  1  0  0  0  0
 14 15  1  0  0  0  0
 14 16  1  0  0  0  0
 14 59  1  0  0  0  0
 15 60  1  0  0  0  0
 16 17  1  0  0  0  0
 16 61  1  0  0  0  0
 16 62  1  0  0  0  0
 17 18  1  0  0  0  0
 17 19  1  0  0  0  0
 18 63  1  0  0  0  0
 18 64  1  0  0  0  0
 18 65  1  0  0  0  0
 19 66  1  0  0  0  0
 19 67  1  0  0  0  0
 19 68  1  0  0  0  0
 20 21  1  0  0  0  0
 20 69  1  0  0  0  0
 21 22  2  0  0  0  0
 21 70  1  0  0  0  0
 22 23  1  0  0  0  0
 22 71  1  0  0  0  0
 23 24  2  0  0  0  0
 23 72  1  0  0  0  0
 24 25  1  0  0  0  0
 24 26  1  0  0  0  0
 25 73  1  0  0  0  0
 25 74  1  0  0  0  0
 25 75  1  0  0  0  0
 26 27  2  0  0  0  0
 26 76  1  0  0  0  0
 27 28  1  0  0  0  0
 27 77  1  0  0  0  0
 28 29  2  0  0  0  0
 28 78  1  0  0  0  0
 29 30  1  0  0  0  0
 29 31  1  0  0  0  0
 30 79  1  0  0  0  0
 30 80  1  0  0  0  0
 30 81  1  0  0  0  0
 31 32  2  0  0  0  0
 31 82  1  0  0  0  0
 32 33  1  0  0  0  0
 32 83  1  0  0  0  0
 33 34  1  0  0  0  0
 33 40  1  0  0  0  0
 33 84  1  0  0  0  0
 34 35  1  0  0  0  0
 34 36  2  0  0  0  0
 35 85  1  0  0  0  0
 35 86  1  0  0  0  0
 35 87  1  0  0  0  0
 36 37  1  0  0  0  0
 36 88  1  0  0  0  0
 37 38  1  0  0  0  0
 37 39  1  0  0  0  0
 37 89  1  0  0  0  0
 38 90  1  0  0  0  0
 39 40  1  0  0  0  0
 39 91  1  0  0  0  0
 39 92  1  0  0  0  0
 40 41  1  0  0  0  0
 40 42  1  0  0  0  0
 41 93  1  0  0  0  0
 41 94  1  0  0  0  0
 41 95  1  0  0  0  0
 42 96  1  0  0  0  0
 42 97  1  0  0  0  0
 42 98  1  0  0  0  0
M  END
