REMARK  Name = 
REMARK  22 active torsions:
REMARK  status: ('A' for Active; 'I' for Inactive)
REMARK    1  A    between atoms: C_1  and  C_2
REMARK    2  A    between atoms: C_2  and  C_3
REMARK    3  A    between atoms: C_4  and  C_5
REMARK    4  A    between atoms: C_6  and  C_7
REMARK    5  A    between atoms: C_6  and  C_8
REMARK    6  A    between atoms: C_9  and  C_10
REMARK    7  A    between atoms: C_11  and  C_12
REMARK    8  A    between atoms: C_14  and  O_15
REMARK    9  A    between atoms: C_17  and  C_18
REMARK   10  A    between atoms: C_17  and  C_19
REMARK   11  A    between atoms: C_20  and  C_21
REMARK   12  A    between atoms: C_22  and  C_23
REMARK   13  A    between atoms: C_24  and  C_25
REMARK   14  A    between atoms: C_24  and  C_26
REMARK   15  A    between atoms: C_27  and  C_28
REMARK   16  A    between atoms: C_29  and  C_30
REMARK   17  A    between atoms: C_29  and  C_31
REMARK   18  A    between atoms: C_32  and  C_33
REMARK   19  A    between atoms: C_34  and  C_35
REMARK   20  A    between atoms: C_37  and  O_38
REMARK   21  A    between atoms: C_40  and  C_41
REMARK   22  A    between atoms: C_40  and  C_42
REMARK                            x       y       z     vdW  Elec       q    Type
REMARK                         _______ _______ _______ _____ _____    ______ ____
ROOT
ATOM      1  C   UNL     1       1.776   2.692   0.698  0.00  0.00    +0.000 C 
ATOM      2  C   UNL     1       2.105   3.977   1.002  0.00  0.00    +0.000 C 
ENDROOT
BRANCH   1   5
ATOM      3  C   UNL     1       1.080  -0.027   0.053  0.00  0.00    +0.000 C 
ATOM      4  C   UNL     1       0.574   1.113  -0.815  0.00  0.00    +0.000 C 
ATOM      5  C   UNL     1       0.902   2.397  -0.510  0.00  0.00    +0.000 C 
BRANCH   4   6
ATOM      6  C   UNL     1      -0.300   0.818  -2.023  0.00  0.00    +0.000 C 
ATOM      7  C   UNL     1      -0.754   1.839  -2.800  0.00  0.00    +0.000 C 
BRANCH   7   8
ATOM      8  C   UNL     1      -1.628   1.544  -4.008  0.00  0.00    +0.000 C 
ATOM      9  C   UNL     1      -2.081   2.564  -4.785  0.00  0.00    +0.000 C 
ATOM     10  C   UNL     1      -2.955   2.270  -5.993  0.00  0.00    +0.000 C 
BRANCH   9  11
ATOM     11  C   UNL     1      -1.714   4.000  -4.445  0.00  0.00    +0.000 C 
ATOM     12  C   UNL     1      -0.932   4.263  -3.363  0.00  0.00    +0.000 C 
BRANCH  12  13
ATOM     13  C   UNL     1      -0.565   5.699  -3.023  0.00  0.00    +0.000 C 
ATOM     14  C   UNL     1       0.743   5.984  -2.752  0.00  0.00    +0.000 C 
ATOM     15  C   UNL     1       1.784   4.877  -2.747  0.00  0.00    +0.000 C 
ATOM     16  C   UNL     1       1.107   7.274  -2.486  0.00  0.00    +0.000 C 
ATOM     17  C   UNL     1       0.208   8.271  -2.497  0.00  0.00    +0.000 C 
ATOM     18  C   UNL     1      -1.092   8.052  -2.762  0.00  0.00    +0.000 C 
ATOM     19  C   UNL     1      -1.533   6.805  -3.029  0.00  0.00    +0.000 C 
ATOM     20  C   UNL     1      -2.466   6.486  -1.872  0.00  0.00    +0.000 C 
ATOM     21  C   UNL     1      -2.164   6.839  -4.412  0.00  0.00    +0.000 C 
BRANCH  17  22
ATOM     22  O   UNL     1       0.619   9.033  -3.622  0.00  0.00    +0.000 OA
ATOM     23  H   UNL     1       0.527   8.481  -4.451  0.00  0.00    +0.000 HD
ENDBRANCH  17  22
ENDBRANCH  12  13
ENDBRANCH   9  11
ENDBRANCH   7   8
ENDBRANCH   4   6
ENDBRANCH   1   5
BRANCH   2  24
ATOM     24  C   UNL     1       2.979   4.272   2.211  0.00  0.00    +0.000 C 
ATOM     25  C   UNL     1       3.307   5.556   2.515  0.00  0.00    +0.000 C 
ATOM     26  C   UNL     1       4.181   5.851   3.723  0.00  0.00    +0.000 C 
BRANCH  25  27
ATOM     27  C   UNL     1       2.801   6.697   1.647  0.00  0.00    +0.000 C 
ATOM     28  C   UNL     1       2.018   6.433   0.566  0.00  0.00    +0.000 C 
BRANCH  28  29
ATOM     29  C   UNL     1       1.512   7.573  -0.302  0.00  0.00    +0.000 C 
ATOM     30  C   UNL     1       0.730   7.309  -1.383  0.00  0.00    +0.000 C 
ATOM     31  C   UNL     1       0.223   8.449  -2.251  0.00  0.00    +0.000 C 
BRANCH  30  32
ATOM     32  C   UNL     1       0.362   5.874  -1.724  0.00  0.00    +0.000 C 
ATOM     33  C   UNL     1       0.816   4.853  -0.947  0.00  0.00    +0.000 C 
BRANCH  33  34
ATOM     34  C   UNL     1       0.449   3.418  -1.287  0.00  0.00    +0.000 C 
ATOM     35  C   UNL     1       1.276   2.203  -1.274  0.00  0.00    +0.000 C 
ATOM     36  C   UNL     1       2.444   2.046  -2.234  0.00  0.00    +0.000 C 
ATOM     37  C   UNL     1       0.968   1.219  -0.379  0.00  0.00    +0.000 C 
ATOM     38  C   UNL     1      -0.095   1.386   0.462  0.00  0.00    +0.000 C 
ATOM     39  C   UNL     1      -0.839   2.504   0.436  0.00  0.00    +0.000 C 
ATOM     40  C   UNL     1      -0.581   3.509  -0.419  0.00  0.00    +0.000 C 
ATOM     41  C   UNL     1      -1.799   3.508  -1.329  0.00  0.00    +0.000 C 
ATOM     42  C   UNL     1      -0.333   4.748   0.425  0.00  0.00    +0.000 C 
BRANCH  38  43
ATOM     43  O   UNL     1       0.530   1.464   1.735  0.00  0.00    +0.000 OA
ATOM     44  H   UNL     1       1.121   2.269   1.767  0.00  0.00    +0.000 HD
ENDBRANCH  38  43
ENDBRANCH  33  34
ENDBRANCH  30  32
ENDBRANCH  28  29
ENDBRANCH  25  27
ENDBRANCH   2  24
TORSDOF 12
