REMARK  Name = 
REMARK  22 active torsions:
REMARK  status: ('A' for Active; 'I' for Inactive)
REMARK    1  A    between atoms: C_1  and  C_2
REMARK    2  A    between atoms: C_2  and  C_3
REMARK    3  A    between atoms: C_4  and  C_5
REMARK    4  A    between atoms: C_6  and  C_7
REMARK    5  A    between atoms: C_6  and  C_8
REMARK    6  A    between atoms: C_9  and  C_10
REMARK    7  A    between atoms: C_11  and  C_12
REMARK    8  A    between atoms: C_14  and  O_15
REMARK    9  A    between atoms: C_17  and  C_18
REMARK   10  A    between atoms: C_17  and  C_19
REMARK   11  A    between atoms: C_20  and  C_21
REMARK   12  A    between atoms: C_22  and  C_23
REMARK   13  A    between atoms: C_24  and  C_25
REMARK   14  A    between atoms: C_24  and  C_26
REMARK   15  A    between atoms: C_27  and  C_28
REMARK   16  A    between atoms: C_29  and  C_30
REMARK   17  A    between atoms: C_29  and  C_31
REMARK   18  A    between atoms: C_32  and  C_33
REMARK   19  A    between atoms: C_34  and  C_35
REMARK   20  A    between atoms: C_37  and  O_38
REMARK   21  A    between atoms: C_40  and  C_41
REMARK   22  A    between atoms: C_40  and  C_42
REMARK                            x       y       z     vdW  Elec       q    Type
REMARK                         _______ _______ _______ _____ _____    ______ ____
ROOT
ATOM      1  C   UNL     1       1.626   1.254  -2.490  0.00  0.00    +0.000 C 
ATOM      2  C   UNL     1       1.955   1.818  -3.683  0.00  0.00    +0.000 C 
ENDROOT
BRANCH   1   5
ATOM      3  C   UNL     1       0.930   0.061   0.038  0.00  0.00    +0.000 C 
ATOM      4  C   UNL     1       0.423  -0.553  -1.257  0.00  0.00    +0.000 C 
ATOM      5  C   UNL     1       0.752   0.011  -2.451  0.00  0.00    +0.000 C 
BRANCH   4   6
ATOM      6  C   UNL     1      -0.450  -1.796  -1.219  0.00  0.00    +0.000 C 
ATOM      7  C   UNL     1      -0.904  -2.345  -2.378  0.00  0.00    +0.000 C 
BRANCH   7   8
ATOM      8  C   UNL     1      -1.778  -3.588  -2.339  0.00  0.00    +0.000 C 
ATOM      9  C   UNL     1      -2.231  -4.137  -3.498  0.00  0.00    +0.000 C 
ATOM     10  C   UNL     1      -3.105  -5.380  -3.460  0.00  0.00    +0.000 C 
BRANCH   9  11
ATOM     11  C   UNL     1      -1.864  -3.507  -4.832  0.00  0.00    +0.000 C 
ATOM     12  C   UNL     1      -1.082  -2.394  -4.867  0.00  0.00    +0.000 C 
BRANCH  12  13
ATOM     13  C   UNL     1      -0.715  -1.764  -6.201  0.00  0.00    +0.000 C 
ATOM     14  C   UNL     1       0.536  -1.242  -6.370  0.00  0.00    +0.000 C 
ATOM     15  C   UNL     1       1.601  -1.442  -5.305  0.00  0.00    +0.000 C 
ATOM     16  C   UNL     1       0.821  -0.539  -7.506  0.00  0.00    +0.000 C 
ATOM     17  C   UNL     1      -0.100  -0.359  -8.466  0.00  0.00    +0.000 C 
ATOM     18  C   UNL     1      -1.345  -0.854  -8.359  0.00  0.00    +0.000 C 
ATOM     19  C   UNL     1      -1.708  -1.556  -7.264  0.00  0.00    +0.000 C 
ATOM     20  C   UNL     1      -2.776  -0.695  -6.609  0.00  0.00    +0.000 C 
ATOM     21  C   UNL     1      -2.150  -2.930  -7.739  0.00  0.00    +0.000 C 
BRANCH  17  22
ATOM     22  O   UNL     1       0.433  -1.121  -9.539  0.00  0.00    +0.000 OA
ATOM     23  H   UNL     1       0.470  -2.085  -9.277  0.00  0.00    +0.000 HD
ENDBRANCH  17  22
ENDBRANCH  12  13
ENDBRANCH   9  11
ENDBRANCH   7   8
ENDBRANCH   4   6
ENDBRANCH   1   5
BRANCH   2  24
ATOM     24  C   UNL     1       2.829   3.061  -3.722  0.00  0.00    +0.000 C 
ATOM     25  C   UNL     1       3.157   3.625  -4.915  0.00  0.00    +0.000 C 
ATOM     26  C   UNL     1       4.031   4.868  -4.954  0.00  0.00    +0.000 C 
BRANCH  25  27
ATOM     27  C   UNL     1       2.651   3.011  -6.211  0.00  0.00    +0.000 C 
ATOM     28  C   UNL     1       1.868   1.899  -6.176  0.00  0.00    +0.000 C 
BRANCH  28  29
ATOM     29  C   UNL     1       1.362   1.285  -7.471  0.00  0.00    +0.000 C 
ATOM     30  C   UNL     1       0.580   0.173  -7.437  0.00  0.00    +0.000 C 
ATOM     31  C   UNL     1       0.073  -0.440  -8.732  0.00  0.00    +0.000 C 
BRANCH  30  32
ATOM     32  C   UNL     1       0.212  -0.457  -6.103  0.00  0.00    +0.000 C 
ATOM     33  C   UNL     1       0.666   0.092  -4.944  0.00  0.00    +0.000 C 
BRANCH  33  34
ATOM     34  C   UNL     1       0.299  -0.538  -3.610  0.00  0.00    +0.000 C 
ATOM     35  C   UNL     1      -0.289  -1.855  -3.894  0.00  0.00    +0.000 C 
ATOM     36  C   UNL     1      -1.539  -1.982  -4.750  0.00  0.00    +0.000 C 
ATOM     37  C   UNL     1       0.315  -2.961  -3.368  0.00  0.00    +0.000 C 
ATOM     38  C   UNL     1       1.429  -2.812  -2.593  0.00  0.00    +0.000 C 
ATOM     39  C   UNL     1       1.952  -1.600  -2.345  0.00  0.00    +0.000 C 
ATOM     40  C   UNL     1       1.405  -0.476  -2.840  0.00  0.00    +0.000 C 
ATOM     41  C   UNL     1       0.918   0.246  -1.594  0.00  0.00    +0.000 C 
ATOM     42  C   UNL     1       2.480   0.202  -3.673  0.00  0.00    +0.000 C 
BRANCH  38  43
ATOM     43  O   UNL     1       2.437  -3.425  -3.384  0.00  0.00    +0.000 OA
ATOM     44  H   UNL     1       2.545  -2.917  -4.239  0.00  0.00    +0.000 HD
ENDBRANCH  38  43
ENDBRANCH  33  34
ENDBRANCH  30  32
ENDBRANCH  28  29
ENDBRANCH  25  27
ENDBRANCH   2  24
TORSDOF 12
