
 OpenBabel03132514253D

 70 69  0  0  0  0  0  0  0  0999 V2000
    1.0569    0.0243    0.0785 C   0  0  0  0  0  0  0  0  0  0  0  0
    0.5502    1.4546    0.1682 C   0  0  0  0  0  0  0  0  0  0  0  0
    1.0569    2.2473   -1.0257 C   0  0  0  0  0  0  0  0  0  0  0  0
    0.5502    1.6098   -2.3091 C   0  0  0  0  0  0  0  0  0  0  0  0
   -0.9698    1.6098   -2.3091 C   0  0  0  0  0  0  0  0  0  0  0  0
   -1.4764    3.0401   -2.2195 C   0  0  0  0  0  0  0  0  0  0  0  0
   -0.9698    3.8328   -3.4134 C   0  0  0  0  0  0  0  0  0  0  0  0
   -1.4764    3.1953   -4.6968 C   0  0  0  0  0  0  0  0  0  0  0  0
   -2.9964    3.1953   -4.6968 C   0  0  0  0  0  0  0  0  0  0  0  0
   -3.6766    3.8470   -5.6783 C   0  0  0  0  0  0  0  0  0  0  0  0
   -5.1966    3.8470   -5.6783 C   0  0  0  0  0  0  0  0  0  0  0  0
   -5.7033    5.2773   -5.5887 C   0  0  0  0  0  0  0  0  0  0  0  0
   -5.1967    6.0700   -6.7825 C   0  0  0  0  0  0  0  0  0  0  0  0
   -5.7033    5.4325   -8.0660 C   0  0  0  0  0  0  0  0  0  0  0  0
   -7.2233    5.4325   -8.0660 C   0  0  0  0  0  0  0  0  0  0  0  0
   -7.7300    6.8628   -7.9764 C   0  0  0  0  0  0  0  0  0  0  0  0
   -7.2233    7.6555   -9.1702 C   0  0  0  0  0  0  0  0  0  0  0  0
   -7.7300    7.0180  -10.4536 C   0  0  0  0  0  0  0  0  0  0  0  0
   -8.4607    7.6867  -11.2500 O   0  0  0  0  0  0  0  0  0  0  0  0
   -7.3870    5.6752  -10.7629 O   0  0  0  0  0  0  0  0  0  0  0  0
   -7.8603    5.0796  -11.9620 C   0  0  0  0  0  0  0  0  0  0  0  0
   -9.3803    5.0796  -11.9620 C   0  0  0  0  0  0  0  0  0  0  0  0
   -9.8536    6.4158  -11.8782 O   0  0  0  0  0  0  0  0  0  0  0  0
   -9.8870    4.4421  -13.2454 C   0  0  0  0  0  0  0  0  0  0  0  0
   -9.4136    3.1059  -13.3291 O   0  0  0  0  0  0  0  0  0  0  0  0
   -7.6836    3.1060  -13.3291 P   0  0  0  0  0  0  0  0  0  0  0  0
   -7.6836    3.6785  -14.7677 O   0  0  0  0  0  0  0  0  0  0  0  0
   -7.6836    4.1781  -11.9714 O   0  0  0  0  0  0  0  0  0  0  0  0
   -5.9536    3.1060  -13.3291 O   0  0  0  0  0  0  0  0  0  0  0  0
    0.7002   -0.4244   -0.8249 H   0  0  0  0  0  0  0  0  0  0  0  0
    0.7003   -0.5337    0.9189 H   0  0  0  0  0  0  0  0  0  0  0  0
    2.1269    0.0243    0.0785 H   0  0  0  0  0  0  0  0  0  0  0  0
   -0.5198    1.4546    0.1682 H   0  0  0  0  0  0  0  0  0  0  0  0
    0.9069    1.9034    1.0716 H   0  0  0  0  0  0  0  0  0  0  0  0
    0.7002    3.2542   -0.9626 H   0  0  0  0  0  0  0  0  0  0  0  0
    2.1269    2.2473   -1.0257 H   0  0  0  0  0  0  0  0  0  0  0  0
    0.9069    2.1679   -3.1495 H   0  0  0  0  0  0  0  0  0  0  0  0
    0.9069    0.6030   -2.3722 H   0  0  0  0  0  0  0  0  0  0  0  0
   -1.3264    1.1610   -3.2126 H   0  0  0  0  0  0  0  0  0  0  0  0
   -1.3264    1.0518   -1.4687 H   0  0  0  0  0  0  0  0  0  0  0  0
   -2.5464    3.0401   -2.2195 H   0  0  0  0  0  0  0  0  0  0  0  0
   -1.1198    3.4889   -1.3160 H   0  0  0  0  0  0  0  0  0  0  0  0
   -1.3264    4.8397   -3.3503 H   0  0  0  0  0  0  0  0  0  0  0  0
    0.1002    3.8328   -3.4134 H   0  0  0  0  0  0  0  0  0  0  0  0
   -1.1198    3.7534   -5.5372 H   0  0  0  0  0  0  0  0  0  0  0  0
   -1.1198    2.1885   -4.7599 H   0  0  0  0  0  0  0  0  0  0  0  0
   -3.5314    2.6827   -3.9249 H   0  0  0  0  0  0  0  0  0  0  0  0
   -3.1416    4.3596   -6.4502 H   0  0  0  0  0  0  0  0  0  0  0  0
   -5.5533    3.3982   -6.5818 H   0  0  0  0  0  0  0  0  0  0  0  0
   -5.5533    3.2890   -4.8379 H   0  0  0  0  0  0  0  0  0  0  0  0
   -6.7733    5.2773   -5.5887 H   0  0  0  0  0  0  0  0  0  0  0  0
   -5.3466    5.7261   -4.6852 H   0  0  0  0  0  0  0  0  0  0  0  0
   -5.5533    7.0769   -6.7194 H   0  0  0  0  0  0  0  0  0  0  0  0
   -4.1267    6.0700   -6.7825 H   0  0  0  0  0  0  0  0  0  0  0  0
   -5.3467    5.9906   -8.9064 H   0  0  0  0  0  0  0  0  0  0  0  0
   -5.3467    4.4257   -8.1291 H   0  0  0  0  0  0  0  0  0  0  0  0
   -7.5800    4.9837   -8.9695 H   0  0  0  0  0  0  0  0  0  0  0  0
   -7.5800    4.8745   -7.2256 H   0  0  0  0  0  0  0  0  0  0  0  0
   -8.8000    6.8628   -7.9764 H   0  0  0  0  0  0  0  0  0  0  0  0
   -7.3733    7.3116   -7.0729 H   0  0  0  0  0  0  0  0  0  0  0  0
   -7.5800    8.6624   -9.1071 H   0  0  0  0  0  0  0  0  0  0  0  0
   -6.1533    7.6555   -9.1702 H   0  0  0  0  0  0  0  0  0  0  0  0
   -7.5036    5.6377  -12.8024 H   0  0  0  0  0  0  0  0  0  0  0  0
   -7.5036    4.0728  -12.0250 H   0  0  0  0  0  0  0  0  0  0  0  0
   -9.7370    4.5216  -11.1216 H   0  0  0  0  0  0  0  0  0  0  0  0
   -9.5203    6.8352  -11.0339 H   0  0  0  0  0  0  0  0  0  0  0  0
  -10.9570    4.4421  -13.2454 H   0  0  0  0  0  0  0  0  0  0  0  0
   -9.5303    5.0002  -14.0858 H   0  0  0  0  0  0  0  0  0  0  0  0
   -8.6264    4.3847  -11.7098 H   0  0  0  0  0  0  0  0  0  0  0  0
   -5.6203    3.4695  -14.1990 H   0  0  0  0  0  0  0  0  0  0  0  0
  1  2  1  0  0  0  0
  1 30  1  0  0  0  0
  1 31  1  0  0  0  0
  1 32  1  0  0  0  0
  2  3  1  0  0  0  0
  2 33  1  0  0  0  0
  2 34  1  0  0  0  0
  3  4  1  0  0  0  0
  3 35  1  0  0  0  0
  3 36  1  0  0  0  0
  4  5  1  0  0  0  0
  4 37  1  0  0  0  0
  4 38  1  0  0  0  0
  5  6  1  0  0  0  0
  5 39  1  0  0  0  0
  5 40  1  0  0  0  0
  6  7  1  0  0  0  0
  6 41  1  0  0  0  0
  6 42  1  0  0  0  0
  7  8  1  0  0  0  0
  7 43  1  0  0  0  0
  7 44  1  0  0  0  0
  8  9  1  0  0  0  0
  8 45  1  0  0  0  0
  8 46  1  0  0  0  0
  9 10  2  0  0  0  0
  9 47  1  0  0  0  0
 10 11  1  0  0  0  0
 10 48  1  0  0  0  0
 11 12  1  0  0  0  0
 11 49  1  0  0  0  0
 11 50  1  0  0  0  0
 12 13  1  0  0  0  0
 12 51  1  0  0  0  0
 12 52  1  0  0  0  0
 13 14  1  0  0  0  0
 13 53  1  0  0  0  0
 13 54  1  0  0  0  0
 14 15  1  0  0  0  0
 14 55  1  0  0  0  0
 14 56  1  0  0  0  0
 15 16  1  0  0  0  0
 15 57  1  0  0  0  0
 15 58  1  0  0  0  0
 16 17  1  0  0  0  0
 16 59  1  0  0  0  0
 16 60  1  0  0  0  0
 17 18  1  0  0  0  0
 17 61  1  0  0  0  0
 17 62  1  0  0  0  0
 18 19  2  0  0  0  0
 18 20  1  0  0  0  0
 20 21  1  0  0  0  0
 21 22  1  0  0  0  0
 21 63  1  0  0  0  0
 21 64  1  0  0  0  0
 22 23  1  0  0  0  0
 22 24  1  0  0  0  0
 22 65  1  0  0  0  0
 23 66  1  0  0  0  0
 24 25  1  0  0  0  0
 24 67  1  0  0  0  0
 24 68  1  0  0  0  0
 25 26  1  0  0  0  0
 26 27  2  0  0  0  0
 26 28  1  0  0  0  0
 26 29  1  0  0  0  0
 28 69  1  0  0  0  0
 29 70  1  0  0  0  0
M  END
