REMARK  Name = 
REMARK  25 active torsions:
REMARK  status: ('A' for Active; 'I' for Inactive)
REMARK    1  A    between atoms: C_1  and  C_2
REMARK    2  A    between atoms: C_2  and  C_3
REMARK    3  A    between atoms: C_3  and  C_4
REMARK    4  A    between atoms: C_4  and  C_5
REMARK    5  A    between atoms: C_5  and  C_6
REMARK    6  A    between atoms: C_6  and  C_7
REMARK    7  A    between atoms: C_7  and  C_8
REMARK    8  A    between atoms: C_8  and  C_9
REMARK    9  A    between atoms: C_10  and  C_11
REMARK   10  A    between atoms: C_11  and  C_12
REMARK   11  A    between atoms: C_12  and  C_13
REMARK   12  A    between atoms: C_13  and  C_14
REMARK   13  A    between atoms: C_14  and  C_15
REMARK   14  A    between atoms: C_15  and  C_16
REMARK   15  A    between atoms: C_16  and  C_17
REMARK   16  A    between atoms: C_17  and  C_18
REMARK   17  A    between atoms: C_18  and  O_20
REMARK   18  A    between atoms: O_20  and  C_21
REMARK   19  A    between atoms: C_21  and  C_22
REMARK   20  A    between atoms: C_22  and  O_23
REMARK   21  A    between atoms: C_22  and  C_24
REMARK   22  A    between atoms: C_24  and  O_25
REMARK   23  A    between atoms: O_25  and  P_26
REMARK   24  A    between atoms: P_26  and  O_28
REMARK   25  A    between atoms: P_26  and  O_29
REMARK                            x       y       z     vdW  Elec       q    Type
REMARK                         _______ _______ _______ _____ _____    ______ ____
ROOT
ATOM      1  C   UNL     1      -7.691  -5.343   9.109  0.00  0.00    +0.000 C 
ENDROOT
BRANCH   1   2
ATOM      2  C   UNL     1      -7.185  -3.920   8.946  0.00  0.00    +0.000 C 
BRANCH   2   3
ATOM      3  C   UNL     1      -5.665  -3.920   8.946  0.00  0.00    +0.000 C 
BRANCH   3   4
ATOM      4  C   UNL     1      -5.158  -4.772   7.795  0.00  0.00    +0.000 C 
BRANCH   4   5
ATOM      5  C   UNL     1      -5.665  -4.201   6.480  0.00  0.00    +0.000 C 
BRANCH   5   6
ATOM      6  C   UNL     1      -5.158  -2.777   6.318  0.00  0.00    +0.000 C 
BRANCH   6   8
ATOM      7  C   UNL     1      -2.958  -2.308   5.237  0.00  0.00    +0.000 C 
ATOM      8  C   UNL     1      -3.638  -2.777   6.318  0.00  0.00    +0.000 C 
BRANCH   7   9
ATOM      9  C   UNL     1      -1.438  -2.308   5.237  0.00  0.00    +0.000 C 
BRANCH   9  10
ATOM     10  C   UNL     1      -0.931  -3.160   4.085  0.00  0.00    +0.000 C 
BRANCH  10  11
ATOM     11  C   UNL     1      -1.438  -2.589   2.771  0.00  0.00    +0.000 C 
BRANCH  11  12
ATOM     12  C   UNL     1      -0.931  -1.165   2.609  0.00  0.00    +0.000 C 
BRANCH  12  13
ATOM     13  C   UNL     1       0.589  -1.165   2.609  0.00  0.00    +0.000 C 
BRANCH  13  14
ATOM     14  C   UNL     1       1.095  -2.017   1.457  0.00  0.00    +0.000 C 
BRANCH  14  16
ATOM     15  C   UNL     1       1.095  -0.022  -0.020  0.00  0.00    +0.000 C 
ATOM     16  C   UNL     1       0.589  -1.446   0.143  0.00  0.00    +0.000 C 
ENDBRANCH  14  16
ENDBRANCH  13  14
ENDBRANCH  12  13
ENDBRANCH  11  12
ENDBRANCH  10  11
ENDBRANCH   9  10
ENDBRANCH   7   9
ENDBRANCH   6   8
ENDBRANCH   5   6
ENDBRANCH   4   5
ENDBRANCH   3   4
ENDBRANCH   2   3
ENDBRANCH   1   2
BRANCH   1  17
ATOM     17  C   UNL     1      -7.185  -5.915  10.423  0.00  0.00    +0.000 C 
BRANCH  17  18
ATOM     18  C   UNL     1      -7.691  -5.062  11.575  0.00  0.00    +0.000 C 
ATOM     19  O   UNL     1      -8.422  -5.581  12.476  0.00  0.00    +0.000 OA
BRANCH  18  20
ATOM     20  O   UNL     1      -7.348  -3.686  11.644  0.00  0.00    +0.000 OA
BRANCH  20  21
ATOM     21  C   UNL     1      -7.822  -2.890  12.720  0.00  0.00    +0.000 C 
BRANCH  21  22
ATOM     22  C   UNL     1      -9.342  -2.890  12.720  0.00  0.00    +0.000 C 
BRANCH  22  23
ATOM     23  O   UNL     1      -9.815  -4.220  12.872  0.00  0.00    +0.000 OA
ATOM     24  H   UNL     1      -9.482  -4.781  12.114  0.00  0.00    +0.000 HD
ENDBRANCH  22  23
BRANCH  22  25
ATOM     25  C   UNL     1      -9.848  -2.037  13.872  0.00  0.00    +0.000 C 
BRANCH  25  26
ATOM     26  O   UNL     1      -9.375  -0.707  13.720  0.00  0.00    +0.000 OA
BRANCH  26  27
ATOM     27  P   UNL     1      -7.645  -0.707  13.720  0.00  0.00    +0.000 P 
ATOM     28  O   UNL     1      -7.645  -0.381  12.207  0.00  0.00    +0.000 OA
BRANCH  27  29
ATOM     29  O   UNL     1      -5.915  -0.707  13.720  0.00  0.00    +0.000 OA
ATOM     30  H   UNL     1      -5.582  -1.461  13.155  0.00  0.00    +0.000 HD
ENDBRANCH  27  29
BRANCH  27  31
ATOM     31  O   UNL     1      -7.645   0.576  14.882  0.00  0.00    +0.000 OA
ATOM     32  H   UNL     1      -8.588   0.823  15.105  0.00  0.00    +0.000 HD
ENDBRANCH  27  31
ENDBRANCH  26  27
ENDBRANCH  25  26
ENDBRANCH  22  25
ENDBRANCH  21  22
ENDBRANCH  20  21
ENDBRANCH  18  20
ENDBRANCH  17  18
ENDBRANCH   1  17
TORSDOF 24
