REMARK  Name = 
REMARK  18 active torsions:
REMARK  status: ('A' for Active; 'I' for Inactive)
REMARK    1  A    between atoms: C_1  and  C_2
REMARK    2  A    between atoms: C_2  and  C_3
REMARK    3  A    between atoms: C_4  and  C_5
REMARK    4  A    between atoms: C_5  and  C_6
REMARK    5  A    between atoms: C_7  and  C_8
REMARK    6  A    between atoms: C_8  and  C_9
REMARK    7  A    between atoms: C_9  and  O_10
REMARK    8  A    between atoms: C_9  and  C_11
REMARK    9  A    between atoms: C_12  and  C_13
REMARK   10  A    between atoms: C_14  and  C_15
REMARK   11  A    between atoms: C_16  and  C_17
REMARK   12  A    between atoms: C_17  and  O_18
REMARK   13  A    between atoms: C_17  and  C_19
REMARK   14  A    between atoms: C_19  and  C_20
REMARK   15  A    between atoms: C_21  and  C_22
REMARK   16  A    between atoms: C_22  and  C_23
REMARK   17  A    between atoms: C_23  and  C_24
REMARK   18  A    between atoms: C_24  and  O_26
REMARK                            x       y       z     vdW  Elec       q    Type
REMARK                         _______ _______ _______ _____ _____    ______ ____
ROOT
ATOM      1  C   UNL     1      -4.421  -6.961   5.871  0.00  0.00    +0.000 C 
ATOM      2  C   UNL     1      -5.203  -6.152   6.636  0.00  0.00    +0.000 C 
ENDROOT
BRANCH   2   3
ATOM      3  C   UNL     1      -5.709  -6.639   7.984  0.00  0.00    +0.000 C 
ATOM      4  C   UNL     1      -6.492  -5.831   8.749  0.00  0.00    +0.000 C 
BRANCH   4   5
ATOM      5  C   UNL     1      -6.998  -6.318  10.097  0.00  0.00    +0.000 C 
BRANCH   5   6
ATOM      6  O   UNL     1      -6.525  -5.455  11.120  0.00  0.00    +0.000 OA
ATOM      7  H   UNL     1      -5.525  -5.455  11.120  0.00  0.00    +0.000 HD
ENDBRANCH   5   6
BRANCH   5   8
ATOM      8  C   UNL     1      -8.518  -6.318  10.097  0.00  0.00    +0.000 C 
BRANCH   8   9
ATOM      9  C   UNL     1      -9.025  -7.242   9.001  0.00  0.00    +0.000 C 
ATOM     10  C   UNL     1      -9.807  -8.308   9.319  0.00  0.00    +0.000 C 
BRANCH  10  11
ATOM     11  C   UNL     1     -10.314  -9.232   8.223  0.00  0.00    +0.000 C 
BRANCH  11  12
ATOM     12  C   UNL     1      -9.807 -10.643   8.476  0.00  0.00    +0.000 C 
BRANCH  12  13
ATOM     13  C   UNL     1     -10.314 -11.130   9.823  0.00  0.00    +0.000 C 
ATOM     14  O   UNL     1     -11.044 -12.167   9.890  0.00  0.00    +0.000 OA
BRANCH  13  15
ATOM     15  O   UNL     1      -9.971 -10.425  11.008  0.00  0.00    +0.000 OA
ATOM     16  H   UNL     1     -10.304 -10.745  11.894  0.00  0.00    +0.000 HD
ENDBRANCH  13  15
ENDBRANCH  12  13
ENDBRANCH  11  12
ENDBRANCH  10  11
ENDBRANCH   8   9
ENDBRANCH   5   8
ENDBRANCH   4   5
ENDBRANCH   2   3
BRANCH   1  18
ATOM     17  C   UNL     1      -3.132  -7.282   3.758  0.00  0.00    +0.000 C 
ATOM     18  C   UNL     1      -3.914  -6.474   4.523  0.00  0.00    +0.000 C 
BRANCH  17  19
ATOM     19  C   UNL     1      -2.625  -6.795   2.410  0.00  0.00    +0.000 C 
BRANCH  19  20
ATOM     20  O   UNL     1      -3.099  -7.658   1.387  0.00  0.00    +0.000 OA
ATOM     21  H   UNL     1      -2.765  -7.338   0.500  0.00  0.00    +0.000 HD
ENDBRANCH  19  20
BRANCH  19  22
ATOM     22  C   UNL     1      -1.105  -6.795   2.410  0.00  0.00    +0.000 C 
BRANCH  22  24
ATOM     23  C   UNL     1       0.184  -5.198   0.991  0.00  0.00    +0.000 C 
ATOM     24  C   UNL     1      -0.599  -6.309   1.062  0.00  0.00    +0.000 C 
BRANCH  23  25
ATOM     25  C   UNL     1       0.690  -4.711  -0.357  0.00  0.00    +0.000 C 
BRANCH  25  27
ATOM     26  C   UNL     1       1.068  -2.282  -0.791  0.00  0.00    +0.000 C 
ATOM     27  C   UNL     1       0.184  -3.300  -0.609  0.00  0.00    +0.000 C 
BRANCH  26  29
ATOM     28  C   UNL     1       1.068   0.052   0.052  0.00  0.00    +0.000 C 
ATOM     29  C   UNL     1       0.561  -0.872  -1.044  0.00  0.00    +0.000 C 
ENDBRANCH  26  29
ENDBRANCH  25  27
ENDBRANCH  23  25
ENDBRANCH  22  24
ENDBRANCH  19  22
ENDBRANCH  17  19
ENDBRANCH   1  18
TORSDOF 17
