
 OpenBabel03132512093D

 58 57  0  0  0  0  0  0  0  0999 V2000
    1.0676    0.0522    0.0519 C   0  0  0  0  0  0  0  0  0  0  0  0
    0.5610   -0.8716   -1.0436 C   0  0  0  0  0  0  0  0  0  0  0  0
    1.0676   -2.2823   -0.7914 C   0  0  0  0  0  0  0  0  0  0  0  0
    0.1836   -3.3001   -0.6094 C   0  0  0  0  0  0  0  0  0  0  0  0
    0.6903   -4.7108   -0.3571 C   0  0  0  0  0  0  0  0  0  0  0  0
    0.1836   -5.1977    0.9907 C   0  0  0  0  0  0  0  0  0  0  0  0
   -0.5985   -6.3085    1.0625 C   0  0  0  0  0  0  0  0  0  0  0  0
   -1.1052   -6.7954    2.4103 C   0  0  0  0  0  0  0  0  0  0  0  0
   -2.6252   -6.7954    2.4103 C   0  0  0  0  0  0  0  0  0  0  0  0
   -3.0985   -7.6584    1.3868 O   0  0  0  0  0  0  0  0  0  0  0  0
   -3.1319   -7.2823    3.7581 C   0  0  0  0  0  0  0  0  0  0  0  0
   -3.9140   -6.4739    4.5233 C   0  0  0  0  0  0  0  0  0  0  0  0
   -4.4206   -6.9608    5.8711 C   0  0  0  0  0  0  0  0  0  0  0  0
   -5.2028   -6.1523    6.6362 C   0  0  0  0  0  0  0  0  0  0  0  0
   -5.7094   -6.6392    7.9840 C   0  0  0  0  0  0  0  0  0  0  0  0
   -6.4915   -5.8308    8.7492 C   0  0  0  0  0  0  0  0  0  0  0  0
   -6.9982   -6.3177   10.0970 C   0  0  0  0  0  0  0  0  0  0  0  0
   -6.5249   -5.4547   11.1205 O   0  0  0  0  0  0  0  0  0  0  0  0
   -8.5182   -6.3177   10.0970 C   0  0  0  0  0  0  0  0  0  0  0  0
   -9.0249   -7.2415    9.0014 C   0  0  0  0  0  0  0  0  0  0  0  0
   -9.8070   -8.3083    9.3190 C   0  0  0  0  0  0  0  0  0  0  0  0
  -10.3137   -9.2321    8.2234 C   0  0  0  0  0  0  0  0  0  0  0  0
   -9.8070  -10.6428    8.4756 C   0  0  0  0  0  0  0  0  0  0  0  0
  -10.3137  -11.1297    9.8234 C   0  0  0  0  0  0  0  0  0  0  0  0
  -11.0443  -12.1674    9.8905 O   0  0  0  0  0  0  0  0  0  0  0  0
   -9.9706  -10.4252   11.0076 O   0  0  0  0  0  0  0  0  0  0  0  0
    0.7110   -0.2905    1.0007 H   0  0  0  0  0  0  0  0  0  0  0  0
    0.7110    1.0453   -0.1256 H   0  0  0  0  0  0  0  0  0  0  0  0
    2.1376    0.0522    0.0519 H   0  0  0  0  0  0  0  0  0  0  0  0
   -0.5090   -0.8716   -1.0436 H   0  0  0  0  0  0  0  0  0  0  0  0
    0.9176   -0.5288   -1.9924 H   0  0  0  0  0  0  0  0  0  0  0  0
    2.1196   -2.4747   -0.7570 H   0  0  0  0  0  0  0  0  0  0  0  0
   -0.8684   -3.1077   -0.6438 H   0  0  0  0  0  0  0  0  0  0  0  0
    0.3336   -5.3611   -1.1284 H   0  0  0  0  0  0  0  0  0  0  0  0
    1.7603   -4.7108   -0.3571 H   0  0  0  0  0  0  0  0  0  0  0  0
    0.4421   -4.6668    1.8830 H   0  0  0  0  0  0  0  0  0  0  0  0
   -0.8570   -6.8394    0.1702 H   0  0  0  0  0  0  0  0  0  0  0  0
   -0.7485   -7.7885    2.5879 H   0  0  0  0  0  0  0  0  0  0  0  0
   -0.7485   -6.1451    3.1815 H   0  0  0  0  0  0  0  0  0  0  0  0
   -2.9819   -5.8024    2.2327 H   0  0  0  0  0  0  0  0  0  0  0  0
   -2.7652   -7.3381    0.5001 H   0  0  0  0  0  0  0  0  0  0  0  0
   -2.8734   -8.2609    4.1051 H   0  0  0  0  0  0  0  0  0  0  0  0
   -4.1725   -5.4953    4.1763 H   0  0  0  0  0  0  0  0  0  0  0  0
   -4.1622   -7.9394    6.2181 H   0  0  0  0  0  0  0  0  0  0  0  0
   -5.4612   -5.1737    6.2892 H   0  0  0  0  0  0  0  0  0  0  0  0
   -5.4509   -7.6179    8.3310 H   0  0  0  0  0  0  0  0  0  0  0  0
   -6.7500   -4.8522    8.4022 H   0  0  0  0  0  0  0  0  0  0  0  0
   -6.6415   -7.3108   10.2745 H   0  0  0  0  0  0  0  0  0  0  0  0
   -5.5249   -5.4547   11.1205 H   0  0  0  0  0  0  0  0  0  0  0  0
   -8.8749   -6.6605   11.0458 H   0  0  0  0  0  0  0  0  0  0  0  0
   -8.8749   -5.3246    9.9194 H   0  0  0  0  0  0  0  0  0  0  0  0
   -8.7664   -7.0527    7.9804 H   0  0  0  0  0  0  0  0  0  0  0  0
  -10.0655   -8.4971   10.3400 H   0  0  0  0  0  0  0  0  0  0  0  0
  -11.3837   -9.2321    8.2234 H   0  0  0  0  0  0  0  0  0  0  0  0
   -9.9570   -8.8894    7.2746 H   0  0  0  0  0  0  0  0  0  0  0  0
  -10.1637  -11.2931    7.7044 H   0  0  0  0  0  0  0  0  0  0  0  0
   -8.7370  -10.6428    8.4756 H   0  0  0  0  0  0  0  0  0  0  0  0
  -10.3040  -10.7455   11.8943 H   0  0  0  0  0  0  0  0  0  0  0  0
  1  2  1  0  0  0  0
  1 27  1  0  0  0  0
  1 28  1  0  0  0  0
  1 29  1  0  0  0  0
  2  3  1  0  0  0  0
  2 30  1  0  0  0  0
  2 31  1  0  0  0  0
  3  4  2  0  0  0  0
  3 32  1  0  0  0  0
  4  5  1  0  0  0  0
  4 33  1  0  0  0  0
  5  6  1  0  0  0  0
  5 34  1  0  0  0  0
  5 35  1  0  0  0  0
  6  7  2  0  0  0  0
  6 36  1  0  0  0  0
  7  8  1  0  0  0  0
  7 37  1  0  0  0  0
  8  9  1  0  0  0  0
  8 38  1  0  0  0  0
  8 39  1  0  0  0  0
  9 10  1  0  0  0  0
  9 11  1  0  0  0  0
  9 40  1  0  0  0  0
 10 41  1  0  0  0  0
 11 12  2  0  0  0  0
 11 42  1  0  0  0  0
 12 13  1  0  0  0  0
 12 43  1  0  0  0  0
 13 14  2  0  0  0  0
 13 44  1  0  0  0  0
 14 15  1  0  0  0  0
 14 45  1  0  0  0  0
 15 16  2  0  0  0  0
 15 46  1  0  0  0  0
 16 17  1  0  0  0  0
 16 47  1  0  0  0  0
 17 18  1  0  0  0  0
 17 19  1  0  0  0  0
 17 48  1  0  0  0  0
 18 49  1  0  0  0  0
 19 20  1  0  0  0  0
 19 50  1  0  0  0  0
 19 51  1  0  0  0  0
 20 21  2  0  0  0  0
 20 52  1  0  0  0  0
 21 22  1  0  0  0  0
 21 53  1  0  0  0  0
 22 23  1  0  0  0  0
 22 54  1  0  0  0  0
 22 55  1  0  0  0  0
 23 24  1  0  0  0  0
 23 56  1  0  0  0  0
 23 57  1  0  0  0  0
 24 25  2  0  0  0  0
 24 26  1  0  0  0  0
 26 58  1  0  0  0  0
M  END
