REMARK  Name = 
REMARK  11 active torsions:
REMARK  status: ('A' for Active; 'I' for Inactive)
REMARK    1  A    between atoms: C_1  and  C_2
REMARK    2  A    between atoms: C_2  and  C_3
REMARK    3  A    between atoms: C_6  and  C_7
REMARK    4  A    between atoms: C_7  and  O_9
REMARK    5  A    between atoms: C_12  and  C_13
REMARK    6  A    between atoms: C_18  and  C_19
REMARK    7  A    between atoms: C_21  and  O_22
REMARK    8  A    between atoms: C_23  and  O_24
REMARK    9  A    between atoms: C_25  and  C_26
REMARK   10  A    between atoms: C_25  and  C_27
REMARK   11  A    between atoms: C_31  and  C_32
REMARK                            x       y       z     vdW  Elec       q    Type
REMARK                         _______ _______ _______ _____ _____    ______ ____
ROOT
ATOM      1  C   UNL     1       1.054  -0.049  -0.068  0.00  0.00    +0.000 C 
ATOM      2  C   UNL     1       0.548   1.378  -0.207  0.00  0.00    +0.000 C 
ATOM      3  C   UNL     1       0.708   1.831  -1.649  0.00  0.00    +0.000 C 
ATOM      4  C   UNL     1      -0.858   1.446   0.156  0.00  0.00    +0.000 C 
ATOM      5  C   UNL     1      -1.745   1.476  -0.850  0.00  0.00    +0.000 C 
ATOM      6  C   UNL     1      -3.220   1.548  -0.551  0.00  0.00    +0.000 C 
ATOM      7  C   UNL     1      -3.870   2.608  -1.443  0.00  0.00    +0.000 C 
ATOM      8  C   UNL     1      -4.033   3.905  -0.653  0.00  0.00    +0.000 C 
ATOM      9  C   UNL     1      -3.136   4.987  -1.258  0.00  0.00    +0.000 C 
ATOM     10  C   UNL     1      -3.769   5.174  -2.628  0.00  0.00    +0.000 C 
ATOM     11  C   UNL     1       0.975   4.704   0.610  0.00  0.00    +0.000 C 
ATOM     12  C   UNL     1       0.668   5.651  -0.242  0.00  0.00    +0.000 C 
ATOM     13  C   UNL     1      -0.245   6.775   0.176  0.00  0.00    +0.000 C 
ATOM     14  C   UNL     1      -1.486   6.783  -0.721  0.00  0.00    +0.000 C 
ATOM     15  C   UNL     1      -1.106   6.317  -2.117  0.00  0.00    +0.000 C 
ATOM     16  C   UNL     1      -0.063   7.263  -2.689  0.00  0.00    +0.000 C 
ATOM     17  C   UNL     1      -0.543   4.896  -2.035  0.00  0.00    +0.000 C 
ATOM     18  C   UNL     1      -1.555   4.010  -1.555  0.00  0.00    +0.000 C 
ATOM     19  C   UNL     1      -2.710   3.934  -2.394  0.00  0.00    +0.000 C 
ATOM     20  C   UNL     1      -3.361   5.316  -2.490  0.00  0.00    +0.000 C 
ATOM     21  C   UNL     1      -3.830   5.757  -1.113  0.00  0.00    +0.000 C 
ATOM     22  C   UNL     1      -4.554   5.252  -3.429  0.00  0.00    +0.000 C 
ATOM     23  C   UNL     1      -2.336   6.318  -3.031  0.00  0.00    +0.000 C 
ATOM     24  C   UNL     1      -2.948   7.709  -3.066  0.00  0.00    +0.000 C 
ATOM     25  C   UNL     1      -1.897   4.939   0.901  0.00  0.00    +0.000 C 
ATOM     26  C   UNL     1      -2.542   5.842  -0.138  0.00  0.00    +0.000 C 
ATOM     27  C   UNL     1      -3.644   6.659   0.515  0.00  0.00    +0.000 C 
ATOM     28  C   UNL     1       1.889   3.582   0.192  0.00  0.00    +0.000 C 
ATOM     29  C   UNL     1       1.345   2.273   0.706  0.00  0.00    +0.000 C 
ENDROOT
BRANCH   6  30
ATOM     30  C   UNL     1      -4.399   0.740  -0.033  0.00  0.00    +0.000 C 
ATOM     31  O   UNL     1      -4.234  -0.469   0.320  0.00  0.00    +0.000 OA
BRANCH  30  32
ATOM     32  O   UNL     1      -5.685   1.337   0.056  0.00  0.00    +0.000 OA
ATOM     33  H   UNL     1      -6.460   0.805   0.396  0.00  0.00    +0.000 HD
ENDBRANCH  30  32
ENDBRANCH   6  30
BRANCH  18  34
ATOM     34  O   UNL     1      -1.990   4.523  -0.305  0.00  0.00    +0.000 OA
ATOM     35  H   UNL     1      -2.374   5.437  -0.435  0.00  0.00    +0.000 HD
ENDBRANCH  18  34
BRANCH  19  36
ATOM     36  O   UNL     1      -3.637   3.011  -1.842  0.00  0.00    +0.000 OA
ATOM     37  H   UNL     1      -3.907   3.316  -0.929  0.00  0.00    +0.000 HD
ENDBRANCH  19  36
TORSDOF 4
