REMARK  Name = 
REMARK  11 active torsions:
REMARK  status: ('A' for Active; 'I' for Inactive)
REMARK    1  A    between atoms: C_1  and  C_2
REMARK    2  A    between atoms: C_2  and  C_3
REMARK    3  A    between atoms: C_6  and  C_7
REMARK    4  A    between atoms: C_7  and  O_9
REMARK    5  A    between atoms: C_12  and  C_13
REMARK    6  A    between atoms: C_18  and  C_19
REMARK    7  A    between atoms: C_21  and  O_22
REMARK    8  A    between atoms: C_23  and  O_24
REMARK    9  A    between atoms: C_25  and  C_26
REMARK   10  A    between atoms: C_25  and  C_27
REMARK   11  A    between atoms: C_31  and  C_32
REMARK                            x       y       z     vdW  Elec       q    Type
REMARK                         _______ _______ _______ _____ _____    ______ ____
ROOT
ATOM      1  C   UNL     1       1.023  -0.020   0.095  0.00  0.00    +0.000 C 
ATOM      2  C   UNL     1       0.516  -0.693   1.361  0.00  0.00    +0.000 C 
ATOM      3  C   UNL     1      -0.939  -1.123   1.277  0.00  0.00    +0.000 C 
ATOM      4  C   UNL     1       1.413  -1.819   1.558  0.00  0.00    +0.000 C 
ATOM      5  C   UNL     1       0.934  -3.037   1.259  0.00  0.00    +0.000 C 
ATOM      6  C   UNL     1       1.805  -4.253   1.440  0.00  0.00    +0.000 C 
ATOM      7  C   UNL     1       1.008  -5.351   2.148  0.00  0.00    +0.000 C 
ATOM      8  C   UNL     1       1.356  -5.351   3.635  0.00  0.00    +0.000 C 
ATOM      9  C   UNL     1       0.125  -4.939   4.446  0.00  0.00    +0.000 C 
ATOM     10  C   UNL     1      -0.820  -6.098   4.171  0.00  0.00    +0.000 C 
ATOM     11  C   UNL     1       0.014  -0.427   4.765  0.00  0.00    +0.000 C 
ATOM     12  C   UNL     1      -0.863  -1.183   5.378  0.00  0.00    +0.000 C 
ATOM     13  C   UNL     1      -0.454  -1.989   6.584  0.00  0.00    +0.000 C 
ATOM     14  C   UNL     1      -0.680  -3.477   6.304  0.00  0.00    +0.000 C 
ATOM     15  C   UNL     1      -1.887  -3.645   5.396  0.00  0.00    +0.000 C 
ATOM     16  C   UNL     1      -3.109  -3.062   6.088  0.00  0.00    +0.000 C 
ATOM     17  C   UNL     1      -1.647  -2.912   4.074  0.00  0.00    +0.000 C 
ATOM     18  C   UNL     1      -0.531  -3.499   3.401  0.00  0.00    +0.000 C 
ATOM     19  C   UNL     1      -0.711  -4.877   3.067  0.00  0.00    +0.000 C 
ATOM     20  C   UNL     1      -0.914  -5.689   4.348  0.00  0.00    +0.000 C 
ATOM     21  C   UNL     1       0.330  -5.593   5.217  0.00  0.00    +0.000 C 
ATOM     22  C   UNL     1      -1.165  -7.145   3.993  0.00  0.00    +0.000 C 
ATOM     23  C   UNL     1      -2.120  -5.132   5.111  0.00  0.00    +0.000 C 
ATOM     24  C   UNL     1      -2.292  -5.885   6.420  0.00  0.00    +0.000 C 
ATOM     25  C   UNL     1       1.435  -2.928   5.108  0.00  0.00    +0.000 C 
ATOM     26  C   UNL     1       0.558  -4.060   5.620  0.00  0.00    +0.000 C 
ATOM     27  C   UNL     1       1.342  -4.896   6.617  0.00  0.00    +0.000 C 
ATOM     28  C   UNL     1      -0.396   0.378   3.560  0.00  0.00    +0.000 C 
ATOM     29  C   UNL     1       0.674   0.279   2.502  0.00  0.00    +0.000 C 
ENDROOT
BRANCH   6  30
ATOM     30  C   UNL     1       3.001  -4.992   0.860  0.00  0.00    +0.000 C 
ATOM     31  O   UNL     1       3.596  -4.533  -0.164  0.00  0.00    +0.000 OA
BRANCH  30  32
ATOM     32  O   UNL     1       3.452  -6.196   1.464  0.00  0.00    +0.000 OA
ATOM     33  H   UNL     1       4.239  -6.682   1.082  0.00  0.00    +0.000 HD
ENDBRANCH  30  32
ENDBRANCH   6  30
BRANCH  18  34
ATOM     34  O   UNL     1       0.569  -3.435   4.297  0.00  0.00    +0.000 OA
ATOM     35  H   UNL     1       0.357  -3.958   5.122  0.00  0.00    +0.000 HD
ENDBRANCH  18  34
BRANCH  19  36
ATOM     36  O   UNL     1       0.438  -5.352   2.382  0.00  0.00    +0.000 OA
ATOM     37  H   UNL     1       1.241  -5.253   2.970  0.00  0.00    +0.000 HD
ENDBRANCH  19  36
TORSDOF 4
