
 OpenBabel03132512093D

 82 86  0  0  0  0  0  0  0  0999 V2000
    1.0231   -0.0197    0.0953 C   0  0  0  0  0  0  0  0  0  0  0  0
    0.5165   -0.6925    1.3606 C   0  0  0  0  0  0  0  0  0  0  0  0
   -0.9389   -1.1229    1.2770 C   0  0  0  0  0  0  0  0  0  0  0  0
    1.4128   -1.8191    1.5577 C   0  0  0  0  0  0  0  0  0  0  0  0
    0.9345   -3.0370    1.2591 C   0  0  0  0  0  0  0  0  0  0  0  0
    1.8054   -4.2532    1.4396 C   0  0  0  0  0  0  0  0  0  0  0  0
    3.0007   -4.9920    0.8602 C   0  0  0  0  0  0  0  0  0  0  0  0
    3.5962   -4.5326   -0.1643 O   0  0  0  0  0  0  0  0  0  0  0  0
    3.4521   -6.1956    1.4636 O   0  0  0  0  0  0  0  0  0  0  0  0
    1.0083   -5.3507    2.1476 C   0  0  0  0  0  0  0  0  0  0  0  0
    1.3559   -5.3505    3.6352 C   0  0  0  0  0  0  0  0  0  0  0  0
    0.1250   -4.9394    4.4455 C   0  0  0  0  0  0  0  0  0  0  0  0
   -0.8199   -6.0980    4.1713 C   0  0  0  0  0  0  0  0  0  0  0  0
    0.0139   -0.4270    4.7654 C   0  0  0  0  0  0  0  0  0  0  0  0
   -0.8633   -1.1834    5.3775 C   0  0  0  0  0  0  0  0  0  0  0  0
   -0.4538   -1.9891    6.5836 C   0  0  0  0  0  0  0  0  0  0  0  0
   -0.6796   -3.4769    6.3038 C   0  0  0  0  0  0  0  0  0  0  0  0
   -1.8873   -3.6448    5.3963 C   0  0  0  0  0  0  0  0  0  0  0  0
   -3.1090   -3.0625    6.0880 C   0  0  0  0  0  0  0  0  0  0  0  0
   -1.6466   -2.9118    4.0745 C   0  0  0  0  0  0  0  0  0  0  0  0
   -0.5311   -3.4991    3.4010 C   0  0  0  0  0  0  0  0  0  0  0  0
    0.5686   -3.4348    4.2970 O   0  0  0  0  0  0  0  0  0  0  0  0
   -0.7109   -4.8766    3.0671 C   0  0  0  0  0  0  0  0  0  0  0  0
    0.4384   -5.3518    2.3819 O   0  0  0  0  0  0  0  0  0  0  0  0
   -0.9137   -5.6891    4.3482 C   0  0  0  0  0  0  0  0  0  0  0  0
    0.3296   -5.5926    5.2172 C   0  0  0  0  0  0  0  0  0  0  0  0
   -1.1650   -7.1454    3.9926 C   0  0  0  0  0  0  0  0  0  0  0  0
   -2.1200   -5.1321    5.1107 C   0  0  0  0  0  0  0  0  0  0  0  0
   -2.2918   -5.8851    6.4199 C   0  0  0  0  0  0  0  0  0  0  0  0
    1.4345   -2.9278    5.1082 C   0  0  0  0  0  0  0  0  0  0  0  0
    0.5582   -4.0596    5.6195 C   0  0  0  0  0  0  0  0  0  0  0  0
    1.3423   -4.8962    6.6173 C   0  0  0  0  0  0  0  0  0  0  0  0
   -0.3958    0.3781    3.5601 C   0  0  0  0  0  0  0  0  0  0  0  0
    0.6739    0.2786    2.5018 C   0  0  0  0  0  0  0  0  0  0  0  0
    0.6665    0.9885    0.0601 H   0  0  0  0  0  0  0  0  0  0  0  0
    0.6665   -0.5543   -0.7603 H   0  0  0  0  0  0  0  0  0  0  0  0
    2.0931   -0.0197    0.0953 H   0  0  0  0  0  0  0  0  0  0  0  0
   -1.5548   -0.2657    1.1013 H   0  0  0  0  0  0  0  0  0  0  0  0
   -1.0594   -1.8193    0.4736 H   0  0  0  0  0  0  0  0  0  0  0  0
   -1.2272   -1.5866    2.1972 H   0  0  0  0  0  0  0  0  0  0  0  0
    2.2161   -1.6592    0.8691 H   0  0  0  0  0  0  0  0  0  0  0  0
    1.6982   -1.8281    2.5888 H   0  0  0  0  0  0  0  0  0  0  0  0
    0.7910   -2.9921    0.1997 H   0  0  0  0  0  0  0  0  0  0  0  0
    0.0665   -3.1855    1.8670 H   0  0  0  0  0  0  0  0  0  0  0  0
    4.2385   -6.6817    1.0823 H   0  0  0  0  0  0  0  0  0  0  0  0
   -0.0388   -5.1677    2.0251 H   0  0  0  0  0  0  0  0  0  0  0  0
    1.2553   -6.3015    1.7234 H   0  0  0  0  0  0  0  0  0  0  0  0
    1.6658   -6.3314    3.9295 H   0  0  0  0  0  0  0  0  0  0  0  0
    2.1501   -4.6567    3.8160 H   0  0  0  0  0  0  0  0  0  0  0  0
   -1.5932   -6.1102    4.9107 H   0  0  0  0  0  0  0  0  0  0  0  0
   -1.2559   -5.9807    3.2012 H   0  0  0  0  0  0  0  0  0  0  0  0
   -0.2758   -7.0185    4.2089 H   0  0  0  0  0  0  0  0  0  0  0  0
   -1.8711   -1.2293    5.0209 H   0  0  0  0  0  0  0  0  0  0  0  0
   -1.0408   -1.6917    7.4273 H   0  0  0  0  0  0  0  0  0  0  0  0
    0.5818   -1.8184    6.7917 H   0  0  0  0  0  0  0  0  0  0  0  0
   -0.8528   -3.9911    7.2260 H   0  0  0  0  0  0  0  0  0  0  0  0
   -3.2760   -3.5779    7.0107 H   0  0  0  0  0  0  0  0  0  0  0  0
   -2.9463   -2.0233    6.2844 H   0  0  0  0  0  0  0  0  0  0  0  0
   -3.9649   -3.1763    5.4560 H   0  0  0  0  0  0  0  0  0  0  0  0
   -2.5178   -2.9915    3.4584 H   0  0  0  0  0  0  0  0  0  0  0  0
   -1.4420   -1.8801    4.2708 H   0  0  0  0  0  0  0  0  0  0  0  0
   -0.3595   -2.9537    2.4965 H   0  0  0  0  0  0  0  0  0  0  0  0
    0.3572   -3.9585    5.1223 H   0  0  0  0  0  0  0  0  0  0  0  0
   -1.5699   -4.9821    2.4380 H   0  0  0  0  0  0  0  0  0  0  0  0
    1.2414   -5.2533    2.9696 H   0  0  0  0  0  0  0  0  0  0  0  0
    0.1840   -6.1603    6.1124 H   0  0  0  0  0  0  0  0  0  0  0  0
    1.1703   -5.9810    4.6813 H   0  0  0  0  0  0  0  0  0  0  0  0
    0.5097   -4.5685    5.4697 H   0  0  0  0  0  0  0  0  0  0  0  0
   -2.0412   -7.2176    3.3828 H   0  0  0  0  0  0  0  0  0  0  0  0
   -0.3239   -7.5316    3.4556 H   0  0  0  0  0  0  0  0  0  0  0  0
   -1.3066   -7.7121    4.8890 H   0  0  0  0  0  0  0  0  0  0  0  0
   -3.0037   -5.2497    4.5190 H   0  0  0  0  0  0  0  0  0  0  0  0
   -2.4521   -6.9232    6.2158 H   0  0  0  0  0  0  0  0  0  0  0  0
   -1.4103   -5.7707    7.0155 H   0  0  0  0  0  0  0  0  0  0  0  0
    1.7375   -2.3123    5.9293 H   0  0  0  0  0  0  0  0  0  0  0  0
    2.3003   -3.3354    4.6295 H   0  0  0  0  0  0  0  0  0  0  0  0
    2.2081   -5.3038    6.1386 H   0  0  0  0  0  0  0  0  0  0  0  0
    1.6453   -4.2808    7.4385 H   0  0  0  0  0  0  0  0  0  0  0  0
    0.7255   -5.6929    6.9773 H   0  0  0  0  0  0  0  0  0  0  0  0
   -1.1295    1.1422    3.7111 H   0  0  0  0  0  0  0  0  0  0  0  0
    0.6327    1.2331    2.0200 H   0  0  0  0  0  0  0  0  0  0  0  0
    1.5824    0.0201    3.0043 H   0  0  0  0  0  0  0  0  0  0  0  0
  1  2  1  0  0  0  0
  1 35  1  0  0  0  0
  1 36  1  0  0  0  0
  1 37  1  0  0  0  0
  2  3  1  0  0  0  0
  2  4  1  0  0  0  0
  2 34  1  0  0  0  0
  3 38  1  0  0  0  0
  3 39  1  0  0  0  0
  3 40  1  0  0  0  0
  4  5  1  0  0  0  0
  4 41  1  0  0  0  0
  4 42  1  0  0  0  0
  5  6  1  0  0  0  0
  5 43  1  0  0  0  0
  5 44  1  0  0  0  0
  6  7  1  0  0  0  0
  6 10  1  0  0  0  0
  6 33  1  0  0  0  0
  7  8  2  0  0  0  0
  7  9  1  0  0  0  0
  9 45  1  0  0  0  0
 10 11  1  0  0  0  0
 10 46  1  0  0  0  0
 10 47  1  0  0  0  0
 11 12  1  0  0  0  0
 11 48  1  0  0  0  0
 11 49  1  0  0  0  0
 12 13  1  0  0  0  0
 12 14  1  0  0  0  0
 12 31  1  0  0  0  0
 13 50  1  0  0  0  0
 13 51  1  0  0  0  0
 13 52  1  0  0  0  0
 14 15  2  0  0  0  0
 14 33  1  0  0  0  0
 15 16  1  0  0  0  0
 15 53  1  0  0  0  0
 16 17  1  0  0  0  0
 16 54  1  0  0  0  0
 16 55  1  0  0  0  0
 17 18  1  0  0  0  0
 17 31  1  0  0  0  0
 17 56  1  0  0  0  0
 18 19  1  0  0  0  0
 18 20  1  0  0  0  0
 18 28  1  0  0  0  0
 19 57  1  0  0  0  0
 19 58  1  0  0  0  0
 19 59  1  0  0  0  0
 20 21  1  0  0  0  0
 20 60  1  0  0  0  0
 20 61  1  0  0  0  0
 21 22  1  0  0  0  0
 21 23  1  0  0  0  0
 21 62  1  0  0  0  0
 22 63  1  0  0  0  0
 23 24  1  0  0  0  0
 23 25  1  0  0  0  0
 23 64  1  0  0  0  0
 24 65  1  0  0  0  0
 25 26  1  0  0  0  0
 25 27  1  0  0  0  0
 25 28  1  0  0  0  0
 26 66  1  0  0  0  0
 26 67  1  0  0  0  0
 26 68  1  0  0  0  0
 27 69  1  0  0  0  0
 27 70  1  0  0  0  0
 27 71  1  0  0  0  0
 28 29  1  0  0  0  0
 28 72  1  0  0  0  0
 29 30  1  0  0  0  0
 29 73  1  0  0  0  0
 29 74  1  0  0  0  0
 30 31  1  0  0  0  0
 30 75  1  0  0  0  0
 30 76  1  0  0  0  0
 31 32  1  0  0  0  0
 32 77  1  0  0  0  0
 32 78  1  0  0  0  0
 32 79  1  0  0  0  0
 33 34  1  0  0  0  0
 33 80  1  0  0  0  0
 34 81  1  0  0  0  0
 34 82  1  0  0  0  0
M  END
