REMARK  Name = 
REMARK  3 active torsions:
REMARK  status: ('A' for Active; 'I' for Inactive)
REMARK    1  A    between atoms: C_1  and  N_2
REMARK    2  A    between atoms: N_2  and  C_3
REMARK    3  A    between atoms: C_4  and  N_6
REMARK                            x       y       z     vdW  Elec       q    Type
REMARK                         _______ _______ _______ _____ _____    ______ ____
ROOT
ATOM      1  N   UNL     1       0.317   2.084  -3.130  0.00  0.00    +0.000 NA
ATOM      2  C   UNL     1       0.634   3.267  -3.610  0.00  0.00    +0.000 C 
ATOM      3  N   UNL     1       1.480   4.177  -2.824  0.00  0.00    +0.000 N 
ATOM      4  N   UNL     1       0.144   3.679  -4.934  0.00  0.00    +0.000 N 
ATOM      5  H   UNL     1       1.726   5.094  -3.196  0.00  0.00    +0.000 HD
ATOM      6  H   UNL     1       1.820   3.891  -1.905  0.00  0.00    +0.000 HD
ATOM      7  H   UNL     1      -0.442   3.047  -5.479  0.00  0.00    +0.000 HD
ATOM      8  H   UNL     1       0.391   4.596  -5.306  0.00  0.00    +0.000 HD
ENDROOT
BRANCH   1  12
ATOM      9  C   UNL     1       0.942  -0.061   0.054  0.00  0.00    +0.000 C 
ATOM     10  N   UNL     1       0.452   0.351  -1.270  0.00  0.00    +0.000 N 
ATOM     11  C   UNL     1      -0.394  -0.559  -2.056  0.00  0.00    +0.000 C 
ATOM     12  C   UNL     1       0.807   1.673  -1.806  0.00  0.00    +0.000 C 
ATOM     13  N   UNL     1       1.563   2.487  -1.103  0.00  0.00    +0.000 NA
ATOM     14  H   UNL     1       1.903   2.201  -0.184  0.00  0.00    +0.000 HD
ENDBRANCH   1  12
TORSDOF 1
