
 OpenBabel03132514253D

 20 19  0  0  0  0  0  0  0  0999 V2000
    0.9893    0.0907    0.0408 C   0  0  0  0  0  0  0  0  0  0  0  0
    0.4993    0.3810    1.3959 N   0  0  0  0  0  0  0  0  0  0  0  0
   -0.3458    1.5597    1.6351 C   0  0  0  0  0  0  0  0  0  0  0  0
    0.8544   -0.5075    2.5119 C   0  0  0  0  0  0  0  0  0  0  0  0
    1.6108   -1.5625    2.2978 N   0  0  0  0  0  0  0  0  0  0  0  0
    0.3644   -0.2172    3.8671 N   0  0  0  0  0  0  0  0  0  0  0  0
    0.6823   -1.0124    4.8659 C   0  0  0  0  0  0  0  0  0  0  0  0
    1.5274   -2.1911    4.6267 N   0  0  0  0  0  0  0  0  0  0  0  0
    0.1923   -0.7221    6.2211 N   0  0  0  0  0  0  0  0  0  0  0  0
    0.6326    0.8393   -0.6354 H   0  0  0  0  0  0  0  0  0  0  0  0
    0.6327   -0.8692   -0.2695 H   0  0  0  0  0  0  0  0  0  0  0  0
    2.0593    0.0907    0.0408 H   0  0  0  0  0  0  0  0  0  0  0  0
   -1.2909    1.2473    2.0276 H   0  0  0  0  0  0  0  0  0  0  0  0
    0.1357    2.2072    2.3378 H   0  0  0  0  0  0  0  0  0  0  0  0
   -0.4974    2.0827    0.7141 H   0  0  0  0  0  0  0  0  0  0  0  0
    1.9508   -1.7639    1.3575 H   0  0  0  0  0  0  0  0  0  0  0  0
    1.7738   -2.8076    5.4011 H   0  0  0  0  0  0  0  0  0  0  0  0
    1.8674   -2.3925    3.6864 H   0  0  0  0  0  0  0  0  0  0  0  0
   -0.3941    0.0958    6.3871 H   0  0  0  0  0  0  0  0  0  0  0  0
    0.4387   -1.3386    6.9955 H   0  0  0  0  0  0  0  0  0  0  0  0
  1  2  1  0  0  0  0
  1 10  1  0  0  0  0
  1 11  1  0  0  0  0
  1 12  1  0  0  0  0
  2  3  1  0  0  0  0
  2  4  1  0  0  0  0
  3 13  1  0  0  0  0
  3 14  1  0  0  0  0
  3 15  1  0  0  0  0
  4  5  2  0  0  0  0
  4  6  1  0  0  0  0
  5 16  1  0  0  0  0
  6  7  2  0  0  0  0
  7  8  1  0  0  0  0
  7  9  1  0  0  0  0
  8 17  1  0  0  0  0
  8 18  1  0  0  0  0
  9 19  1  0  0  0  0
  9 20  1  0  0  0  0
M  END
