
 OpenBabel03142511373D

 20 19  0  0  0  0  0  0  0  0999 V2000
    0.9415   -0.0609    0.0536 C   0  0  0  0  0  0  0  0  0  0  0  0
    0.4515    0.3509   -1.2698 N   0  0  0  0  0  0  0  0  0  0  0  0
   -0.3936   -0.5590   -2.0564 C   0  0  0  0  0  0  0  0  0  0  0  0
    0.8066    1.6725   -1.8065 C   0  0  0  0  0  0  0  0  0  0  0  0
    1.5630    2.4868   -1.1025 N   0  0  0  0  0  0  0  0  0  0  0  0
    0.3166    2.0842   -3.1299 N   0  0  0  0  0  0  0  0  0  0  0  0
    0.6344    3.2670   -3.6103 C   0  0  0  0  0  0  0  0  0  0  0  0
    1.4796    4.1769   -2.8237 N   0  0  0  0  0  0  0  0  0  0  0  0
    0.1444    3.6788   -4.9336 N   0  0  0  0  0  0  0  0  0  0  0  0
    0.5848   -1.0449    0.2757 H   0  0  0  0  0  0  0  0  0  0  0  0
    0.5848    0.6235    0.7948 H   0  0  0  0  0  0  0  0  0  0  0  0
    2.0115   -0.0609    0.0536 H   0  0  0  0  0  0  0  0  0  0  0  0
   -1.3387   -0.0942   -2.2451 H   0  0  0  0  0  0  0  0  0  0  0  0
    0.0879   -0.7786   -2.9863 H   0  0  0  0  0  0  0  0  0  0  0  0
   -0.5452   -1.4666   -1.5102 H   0  0  0  0  0  0  0  0  0  0  0  0
    1.9030    2.2011   -0.1843 H   0  0  0  0  0  0  0  0  0  0  0  0
    1.7260    5.0940   -3.1961 H   0  0  0  0  0  0  0  0  0  0  0  0
    1.8196    3.8913   -1.9054 H   0  0  0  0  0  0  0  0  0  0  0  0
   -0.4420    3.0474   -5.4794 H   0  0  0  0  0  0  0  0  0  0  0  0
    0.3909    4.5958   -5.3061 H   0  0  0  0  0  0  0  0  0  0  0  0
  1  2  1  0  0  0  0
  1 10  1  0  0  0  0
  1 11  1  0  0  0  0
  1 12  1  0  0  0  0
  2  3  1  0  0  0  0
  2  4  1  0  0  0  0
  3 13  1  0  0  0  0
  3 14  1  0  0  0  0
  3 15  1  0  0  0  0
  4  5  2  0  0  0  0
  4  6  1  0  0  0  0
  5 16  1  0  0  0  0
  6  7  2  0  0  0  0
  7  8  1  0  0  0  0
  7  9  1  0  0  0  0
  8 17  1  0  0  0  0
  8 18  1  0  0  0  0
  9 19  1  0  0  0  0
  9 20  1  0  0  0  0
M  END
