REMARK  Name = 
REMARK  3 active torsions:
REMARK  status: ('A' for Active; 'I' for Inactive)
REMARK    1  A    between atoms: C_10  and  C_11
REMARK    2  A    between atoms: C_15  and  C_16
REMARK    3  A    between atoms: C_15  and  O_17
REMARK                            x       y       z     vdW  Elec       q    Type
REMARK                         _______ _______ _______ _____ _____    ______ ____
ROOT
ATOM      1  C   UNL     1       0.969   0.064   0.071  0.00  0.00    +0.000 C 
ATOM      2  C   UNL     1       0.289  -0.599   1.044  0.00  0.00    +0.000 C 
ATOM      3  C   UNL     1      -1.053  -0.615   1.068  0.00  0.00    +0.000 C 
ATOM      4  O   UNL     1      -1.694  -1.277   1.943  0.00  0.00    +0.000 OA
ATOM      5  O   UNL     1      -1.739   0.158   0.048  0.00  0.00    +0.000 OA
ATOM      6  C   UNL     1      -2.576  -0.779  -0.826  0.00  0.00    +0.000 C 
ATOM      7  C   UNL     1       1.070  -1.372   2.077  0.00  0.00    +0.000 C 
ATOM      8  C   UNL     1       2.511  -1.551   1.596  0.00  0.00    +0.000 C 
ATOM      9  C   UNL     1       2.581  -2.727   0.619  0.00  0.00    +0.000 C 
ATOM     10  C   UNL     1       2.324  -2.231  -0.782  0.00  0.00    +0.000 C 
ATOM     11  C   UNL     1       2.996  -0.960  -1.273  0.00  0.00    +0.000 C 
ATOM     12  C   UNL     1       1.521  -2.896  -1.575  0.00  0.00    +0.000 C 
ATOM     13  C   UNL     1       1.262  -2.399  -2.974  0.00  0.00    +0.000 C 
ATOM     14  C   UNL     1      -0.232  -2.502  -3.283  0.00  0.00    +0.000 C 
ATOM     15  C   UNL     1      -1.026  -2.155  -2.050  0.00  0.00    +0.000 C 
ATOM     16  C   UNL     1      -1.995  -3.316  -1.899  0.00  0.00    +0.000 C 
ATOM     17  C   UNL     1      -1.832  -1.054  -2.075  0.00  0.00    +0.000 C 
ENDROOT
BRANCH  15  18
ATOM     18  O   UNL     1      -0.095  -1.968  -0.994  0.00  0.00    +0.000 OA
ATOM     19  H   UNL     1       0.516  -2.758  -0.944  0.00  0.00    +0.000 HD
ENDBRANCH  15  18
TORSDOF 1
