
 OpenBabel03132512093D

 38 40  0  0  0  0  0  0  0  0999 V2000
    1.0568   -0.0275    0.0776 C   0  0  0  0  0  0  0  0  0  0  0  0
    0.3766    0.6986   -0.8502 C   0  0  0  0  0  0  0  0  0  0  0  0
   -0.9639    0.7387   -0.9013 C   0  0  0  0  0  0  0  0  0  0  0  0
   -1.5749    1.3951   -1.8019 O   0  0  0  0  0  0  0  0  0  0  0  0
   -1.6846   -0.0018    0.1186 O   0  0  0  0  0  0  0  0  0  0  0  0
   -2.5217    0.9667    0.9574 C   0  0  0  0  0  0  0  0  0  0  0  0
    1.1925    1.4365   -1.8805 C   0  0  0  0  0  0  0  0  0  0  0  0
    2.6272    1.5986   -1.3735 C   0  0  0  0  0  0  0  0  0  0  0  0
    2.6989    2.7914   -0.4176 C   0  0  0  0  0  0  0  0  0  0  0  0
    2.4043    2.3276    0.9861 C   0  0  0  0  0  0  0  0  0  0  0  0
    3.0427    1.0536    1.5151 C   0  0  0  0  0  0  0  0  0  0  0  0
    1.5987    3.0218    1.7500 C   0  0  0  0  0  0  0  0  0  0  0  0
    1.3023    2.5570    3.1529 C   0  0  0  0  0  0  0  0  0  0  0  0
   -0.1959    2.6933    3.4290 C   0  0  0  0  0  0  0  0  0  0  0  0
   -0.9707    2.3374    2.1871 C   0  0  0  0  0  0  0  0  0  0  0  0
   -1.9147    3.5130    1.9937 C   0  0  0  0  0  0  0  0  0  0  0  0
   -0.0227    2.1125    1.1541 O   0  0  0  0  0  0  0  0  0  0  0  0
   -1.7976    1.2517    2.2159 C   0  0  0  0  0  0  0  0  0  0  0  0
    0.5218   -0.5987    0.8073 H   0  0  0  0  0  0  0  0  0  0  0  0
    2.1268   -0.0275    0.0776 H   0  0  0  0  0  0  0  0  0  0  0  0
   -3.5600    1.1600    1.1287 H   0  0  0  0  0  0  0  0  0  0  0  0
    1.4357    1.7348   -2.8789 H   0  0  0  0  0  0  0  0  0  0  0  0
    2.9257    0.7099   -0.8578 H   0  0  0  0  0  0  0  0  0  0  0  0
    3.2817    1.7666   -2.2032 H   0  0  0  0  0  0  0  0  0  0  0  0
    3.6788    3.2196   -0.4539 H   0  0  0  0  0  0  0  0  0  0  0  0
    1.9779    3.5263   -0.7093 H   0  0  0  0  0  0  0  0  0  0  0  0
    3.6357    1.2826    2.3757 H   0  0  0  0  0  0  0  0  0  0  0  0
    2.2772    0.3564    1.7846 H   0  0  0  0  0  0  0  0  0  0  0  0
    3.6646    0.6251    0.7571 H   0  0  0  0  0  0  0  0  0  0  0  0
    1.5928    1.5325    3.2582 H   0  0  0  0  0  0  0  0  0  0  0  0
    1.8495    3.1562    3.8503 H   0  0  0  0  0  0  0  0  0  0  0  0
   -0.4734    2.0326    4.2236 H   0  0  0  0  0  0  0  0  0  0  0  0
   -0.4163    3.7020    3.7098 H   0  0  0  0  0  0  0  0  0  0  0  0
   -1.3473    4.4167    1.9145 H   0  0  0  0  0  0  0  0  0  0  0  0
   -2.4841    3.3697    1.0992 H   0  0  0  0  0  0  0  0  0  0  0  0
   -2.5771    3.5799    2.8313 H   0  0  0  0  0  0  0  0  0  0  0  0
    0.6039    2.8901    1.1016 H   0  0  0  0  0  0  0  0  0  0  0  0
   -2.4029    0.6071    2.8184 H   0  0  0  0  0  0  0  0  0  0  0  0
  1  2  2  0  0  0  0
  1 19  1  0  0  0  0
  1 20  1  0  0  0  0
  2  3  1  0  0  0  0
  2  7  1  0  0  0  0
  3  4  2  0  0  0  0
  3  5  1  0  0  0  0
  5  6  1  0  0  0  0
  6  7  1  0  0  0  0
  6 18  1  0  0  0  0
  6 21  1  0  0  0  0
  7  8  1  0  0  0  0
  7 22  1  0  0  0  0
  8  9  1  0  0  0  0
  8 23  1  0  0  0  0
  8 24  1  0  0  0  0
  9 10  1  0  0  0  0
  9 25  1  0  0  0  0
  9 26  1  0  0  0  0
 10 11  1  0  0  0  0
 10 12  2  0  0  0  0
 11 27  1  0  0  0  0
 11 28  1  0  0  0  0
 11 29  1  0  0  0  0
 12 13  1  0  0  0  0
 12 18  1  0  0  0  0
 13 14  1  0  0  0  0
 13 30  1  0  0  0  0
 13 31  1  0  0  0  0
 14 15  1  0  0  0  0
 14 32  1  0  0  0  0
 14 33  1  0  0  0  0
 15 16  1  0  0  0  0
 15 17  1  0  0  0  0
 15 18  1  0  0  0  0
 16 34  1  0  0  0  0
 16 35  1  0  0  0  0
 16 36  1  0  0  0  0
 17 37  1  0  0  0  0
 18 38  1  0  0  0  0
M  END
