REMARK  Name = 
REMARK  3 active torsions:
REMARK  status: ('A' for Active; 'I' for Inactive)
REMARK    1  A    between atoms: C_10  and  C_11
REMARK    2  A    between atoms: C_15  and  C_16
REMARK    3  A    between atoms: C_15  and  O_17
REMARK                            x       y       z     vdW  Elec       q    Type
REMARK                         _______ _______ _______ _____ _____    ______ ____
ROOT
ATOM      1  C   UNL     1       1.057  -0.028   0.078  0.00  0.00    +0.000 C 
ATOM      2  C   UNL     1       0.377   0.699  -0.850  0.00  0.00    +0.000 C 
ATOM      3  C   UNL     1      -0.964   0.739  -0.901  0.00  0.00    +0.000 C 
ATOM      4  O   UNL     1      -1.575   1.395  -1.802  0.00  0.00    +0.000 OA
ATOM      5  O   UNL     1      -1.685  -0.002   0.119  0.00  0.00    +0.000 OA
ATOM      6  C   UNL     1      -2.522   0.967   0.957  0.00  0.00    +0.000 C 
ATOM      7  C   UNL     1       1.192   1.437  -1.881  0.00  0.00    +0.000 C 
ATOM      8  C   UNL     1       2.627   1.599  -1.373  0.00  0.00    +0.000 C 
ATOM      9  C   UNL     1       2.699   2.791  -0.418  0.00  0.00    +0.000 C 
ATOM     10  C   UNL     1       2.404   2.328   0.986  0.00  0.00    +0.000 C 
ATOM     11  C   UNL     1       3.043   1.054   1.515  0.00  0.00    +0.000 C 
ATOM     12  C   UNL     1       1.599   3.022   1.750  0.00  0.00    +0.000 C 
ATOM     13  C   UNL     1       1.302   2.557   3.153  0.00  0.00    +0.000 C 
ATOM     14  C   UNL     1      -0.196   2.693   3.429  0.00  0.00    +0.000 C 
ATOM     15  C   UNL     1      -0.971   2.337   2.187  0.00  0.00    +0.000 C 
ATOM     16  C   UNL     1      -1.915   3.513   1.994  0.00  0.00    +0.000 C 
ATOM     17  C   UNL     1      -1.798   1.252   2.216  0.00  0.00    +0.000 C 
ENDROOT
BRANCH  15  18
ATOM     18  O   UNL     1      -0.023   2.112   1.154  0.00  0.00    +0.000 OA
ATOM     19  H   UNL     1       0.604   2.890   1.102  0.00  0.00    +0.000 HD
ENDBRANCH  15  18
TORSDOF 1
