
 OpenBabel03132514253D

 38 40  0  0  0  0  0  0  0  0999 V2000
    0.9691    0.0637    0.0706 C   0  0  0  0  0  0  0  0  0  0  0  0
    0.2889   -0.5994    1.0444 C   0  0  0  0  0  0  0  0  0  0  0  0
   -1.0528   -0.6154    1.0678 C   0  0  0  0  0  0  0  0  0  0  0  0
   -1.6940   -1.2771    1.9431 O   0  0  0  0  0  0  0  0  0  0  0  0
   -1.7388    0.1576    0.0480 O   0  0  0  0  0  0  0  0  0  0  0  0
   -2.5762   -0.7792   -0.8258 C   0  0  0  0  0  0  0  0  0  0  0  0
    1.0699   -1.3717    2.0766 C   0  0  0  0  0  0  0  0  0  0  0  0
    2.5115   -1.5510    1.5956 C   0  0  0  0  0  0  0  0  0  0  0  0
    2.5809   -2.7267    0.6186 C   0  0  0  0  0  0  0  0  0  0  0  0
    2.3236   -2.2312   -0.7816 C   0  0  0  0  0  0  0  0  0  0  0  0
    2.9960   -0.9596   -1.2731 C   0  0  0  0  0  0  0  0  0  0  0  0
    1.5213   -2.8957   -1.5747 C   0  0  0  0  0  0  0  0  0  0  0  0
    1.2622   -2.3991   -2.9741 C   0  0  0  0  0  0  0  0  0  0  0  0
   -0.2323   -2.5022   -3.2828 C   0  0  0  0  0  0  0  0  0  0  0  0
   -1.0256   -2.1553   -2.0502 C   0  0  0  0  0  0  0  0  0  0  0  0
   -1.9948   -3.3164   -1.8985 C   0  0  0  0  0  0  0  0  0  0  0  0
   -0.0950   -1.9676   -0.9942 O   0  0  0  0  0  0  0  0  0  0  0  0
   -1.8318   -1.0539   -2.0748 C   0  0  0  0  0  0  0  0  0  0  0  0
    0.4341    0.5853   -0.6953 H   0  0  0  0  0  0  0  0  0  0  0  0
    2.0391    0.0637    0.0706 H   0  0  0  0  0  0  0  0  0  0  0  0
   -3.6141   -0.9498   -1.0218 H   0  0  0  0  0  0  0  0  0  0  0  0
    1.2871   -1.6932    3.0738 H   0  0  0  0  0  0  0  0  0  0  0  0
    2.8367   -0.6585    1.1032 H   0  0  0  0  0  0  0  0  0  0  0  0
    3.1457   -1.7468    2.4348 H   0  0  0  0  0  0  0  0  0  0  0  0
    3.5519   -3.1737    0.6664 H   0  0  0  0  0  0  0  0  0  0  0  0
    1.8408   -3.4533    0.8816 H   0  0  0  0  0  0  0  0  0  0  0  0
    3.6022   -1.1834   -2.1259 H   0  0  0  0  0  0  0  0  0  0  0  0
    2.2490   -0.2432   -1.5445 H   0  0  0  0  0  0  0  0  0  0  0  0
    3.6100   -0.5571   -0.4947 H   0  0  0  0  0  0  0  0  0  0  0  0
    1.5735   -1.3785   -3.0539 H   0  0  0  0  0  0  0  0  0  0  0  0
    1.8126   -2.9952   -3.6718 H   0  0  0  0  0  0  0  0  0  0  0  0
   -0.4813   -1.8216   -4.0700 H   0  0  0  0  0  0  0  0  0  0  0  0
   -0.4653   -3.5011   -3.5874 H   0  0  0  0  0  0  0  0  0  0  0  0
   -1.4458   -4.2319   -1.8252 H   0  0  0  0  0  0  0  0  0  0  0  0
   -2.5797   -3.1794   -1.0130 H   0  0  0  0  0  0  0  0  0  0  0  0
   -2.6410   -3.3552   -2.7504 H   0  0  0  0  0  0  0  0  0  0  0  0
    0.5160   -2.7576   -0.9441 H   0  0  0  0  0  0  0  0  0  0  0  0
   -2.4127   -0.3869   -2.6769 H   0  0  0  0  0  0  0  0  0  0  0  0
  1  2  2  0  0  0  0
  1 19  1  0  0  0  0
  1 20  1  0  0  0  0
  2  3  1  0  0  0  0
  2  7  1  0  0  0  0
  3  4  2  0  0  0  0
  3  5  1  0  0  0  0
  5  6  1  0  0  0  0
  6  7  1  0  0  0  0
  6 18  1  0  0  0  0
  6 21  1  0  0  0  0
  7  8  1  0  0  0  0
  7 22  1  0  0  0  0
  8  9  1  0  0  0  0
  8 23  1  0  0  0  0
  8 24  1  0  0  0  0
  9 10  1  0  0  0  0
  9 25  1  0  0  0  0
  9 26  1  0  0  0  0
 10 11  1  0  0  0  0
 10 12  2  0  0  0  0
 11 27  1  0  0  0  0
 11 28  1  0  0  0  0
 11 29  1  0  0  0  0
 12 13  1  0  0  0  0
 12 18  1  0  0  0  0
 13 14  1  0  0  0  0
 13 30  1  0  0  0  0
 13 31  1  0  0  0  0
 14 15  1  0  0  0  0
 14 32  1  0  0  0  0
 14 33  1  0  0  0  0
 15 16  1  0  0  0  0
 15 17  1  0  0  0  0
 15 18  1  0  0  0  0
 16 34  1  0  0  0  0
 16 35  1  0  0  0  0
 16 36  1  0  0  0  0
 17 37  1  0  0  0  0
 18 38  1  0  0  0  0
M  END
