
 OpenBabel03132512083D

 52 57  0  0  0  0  0  0  0  0999 V2000
    0.9443   -0.0502   -0.0662 O   0  0  0  0  0  0  0  0  0  0  0  0
    0.4710    0.9641    0.8077 C   0  0  0  0  0  0  0  0  0  0  0  0
   -0.4792    0.4426    1.6003 C   0  0  0  0  0  0  0  0  0  0  0  0
   -1.7717    0.5317    0.9386 O   0  0  0  0  0  0  0  0  0  0  0  0
   -1.6585    1.6726   -0.0905 C   0  0  0  0  0  0  0  0  0  0  0  0
   -2.4070    2.8844    0.4242 C   0  0  0  0  0  0  0  0  0  0  0  0
   -3.5963    2.4977    1.0969 O   0  0  0  0  0  0  0  0  0  0  0  0
   -3.5258    1.6452    2.2303 C   0  0  0  0  0  0  0  0  0  0  0  0
   -2.8850    1.9230    3.3278 N   0  0  0  0  0  0  0  0  0  0  0  0
   -2.9920    0.7662    4.2156 C   0  0  0  0  0  0  0  0  0  0  0  0
   -2.5164    0.4844    5.4998 N   0  0  0  0  0  0  0  0  0  0  0  0
   -2.7984   -0.7367    6.0793 C   0  0  0  0  0  0  0  0  0  0  0  0
   -2.2903   -1.0455    7.4782 C   0  0  0  0  0  0  0  0  0  0  0  0
   -2.7104   -0.3030    8.5636 C   0  0  0  0  0  0  0  0  0  0  0  0
   -2.3118   -0.6096    9.7881 C   0  0  0  0  0  0  0  0  0  0  0  0
   -1.5075   -1.6337   10.0191 C   0  0  0  0  0  0  0  0  0  0  0  0
   -1.0836   -1.9493   11.4442 C   0  0  0  0  0  0  0  0  0  0  0  0
   -2.0138   -2.3228   12.3935 C   0  0  0  0  0  0  0  0  0  0  0  0
   -1.6345   -2.6618   13.6157 C   0  0  0  0  0  0  0  0  0  0  0  0
   -0.3606   -2.6621   13.9709 C   0  0  0  0  0  0  0  0  0  0  0  0
    0.6239   -2.2994   13.0721 C   0  0  0  0  0  0  0  0  0  0  0  0
    0.2614   -1.9324   11.7843 C   0  0  0  0  0  0  0  0  0  0  0  0
   -1.0480   -2.4199    8.9802 C   0  0  0  0  0  0  0  0  0  0  0  0
   -1.4410   -2.1233    7.6832 C   0  0  0  0  0  0  0  0  0  0  0  0
   -3.5475   -1.6884    5.3869 C   0  0  0  0  0  0  0  0  0  0  0  0
   -3.8890   -3.2635    6.1423 Cl  0  0  0  0  0  0  0  0  0  0  0  0
   -4.0247   -1.4188    4.1239 C   0  0  0  0  0  0  0  0  0  0  0  0
   -3.7515   -0.1944    3.5249 C   0  0  0  0  0  0  0  0  0  0  0  0
   -4.0731    0.3607    2.3031 N   0  0  0  0  0  0  0  0  0  0  0  0
   -1.5647    3.5439    1.2664 C   0  0  0  0  0  0  0  0  0  0  0  0
   -0.1878    3.3660    0.8309 O   0  0  0  0  0  0  0  0  0  0  0  0
   -0.1589    2.0747   -0.0085 C   0  0  0  0  0  0  0  0  0  0  0  0
    1.9443   -0.0502   -0.0662 H   0  0  0  0  0  0  0  0  0  0  0  0
    1.2849    1.3450    1.3885 H   0  0  0  0  0  0  0  0  0  0  0  0
   -0.2519   -0.5841    1.7982 H   0  0  0  0  0  0  0  0  0  0  0  0
   -0.5125    0.9867    2.5211 H   0  0  0  0  0  0  0  0  0  0  0  0
   -2.0194    1.3831   -1.0553 H   0  0  0  0  0  0  0  0  0  0  0  0
   -2.6831    3.5196   -0.3913 H   0  0  0  0  0  0  0  0  0  0  0  0
   -3.3655    0.5295    8.4133 H   0  0  0  0  0  0  0  0  0  0  0  0
   -2.6485   -0.0144   10.6111 H   0  0  0  0  0  0  0  0  0  0  0  0
   -3.0528   -2.3384   12.1386 H   0  0  0  0  0  0  0  0  0  0  0  0
   -2.3767   -2.9424   14.3336 H   0  0  0  0  0  0  0  0  0  0  0  0
   -0.0892   -2.9466   14.9660 H   0  0  0  0  0  0  0  0  0  0  0  0
    1.6529   -2.3015   13.3656 H   0  0  0  0  0  0  0  0  0  0  0  0
    1.0027   -1.6427   11.0692 H   0  0  0  0  0  0  0  0  0  0  0  0
   -0.3973   -3.2470    9.1735 H   0  0  0  0  0  0  0  0  0  0  0  0
   -1.0968   -2.7128    6.8593 H   0  0  0  0  0  0  0  0  0  0  0  0
   -4.6055   -2.1515    3.6036 H   0  0  0  0  0  0  0  0  0  0  0  0
   -4.6212   -0.0924    1.5719 H   0  0  0  0  0  0  0  0  0  0  0  0
   -1.6749    3.1489    2.2547 H   0  0  0  0  0  0  0  0  0  0  0  0
   -1.8054    4.5864    1.2640 H   0  0  0  0  0  0  0  0  0  0  0  0
    0.3529    2.2128   -0.9380 H   0  0  0  0  0  0  0  0  0  0  0  0
  1  2  1  0  0  0  0
  1 33  1  0  0  0  0
  2  3  1  0  0  0  0
  2 32  1  0  0  0  0
  2 34  1  0  0  0  0
  3  4  1  0  0  0  0
  3 35  1  0  0  0  0
  3 36  1  0  0  0  0
  4  5  1  0  0  0  0
  5  6  1  0  0  0  0
  5 32  1  0  0  0  0
  5 37  1  0  0  0  0
  6  7  1  0  0  0  0
  6 30  1  0  0  0  0
  6 38  1  0  0  0  0
  7  8  1  0  0  0  0
  8  9  2  0  0  0  0
  8 29  1  0  0  0  0
  9 10  1  0  0  0  0
 10 11  1  0  0  0  0
 10 28  2  0  0  0  0
 11 12  2  0  0  0  0
 12 13  1  0  0  0  0
 12 25  1  0  0  0  0
 13 14  1  0  0  0  0
 13 24  2  0  0  0  0
 14 15  2  0  0  0  0
 14 39  1  0  0  0  0
 15 16  1  0  0  0  0
 15 40  1  0  0  0  0
 16 17  1  0  0  0  0
 16 23  2  0  0  0  0
 17 18  1  0  0  0  0
 17 22  2  0  0  0  0
 18 19  2  0  0  0  0
 18 41  1  0  0  0  0
 19 20  1  0  0  0  0
 19 42  1  0  0  0  0
 20 21  2  0  0  0  0
 20 43  1  0  0  0  0
 21 22  1  0  0  0  0
 21 44  1  0  0  0  0
 22 45  1  0  0  0  0
 23 24  1  0  0  0  0
 23 46  1  0  0  0  0
 24 47  1  0  0  0  0
 25 26  1  0  0  0  0
 25 27  2  0  0  0  0
 27 28  1  0  0  0  0
 27 48  1  0  0  0  0
 28 29  1  0  0  0  0
 29 49  1  0  0  0  0
 30 31  1  0  0  0  0
 30 50  1  0  0  0  0
 30 51  1  0  0  0  0
 31 32  1  0  0  0  0
 32 52  1  0  0  0  0
M  END
