REMARK  Name = 
REMARK  5 active torsions:
REMARK  status: ('A' for Active; 'I' for Inactive)
REMARK    1  A    between atoms: O_1  and  C_2
REMARK    2  A    between atoms: C_6  and  O_7
REMARK    3  A    between atoms: O_7  and  C_8
REMARK    4  A    between atoms: C_12  and  C_13
REMARK    5  A    between atoms: C_16  and  C_17
REMARK                            x       y       z     vdW  Elec       q    Type
REMARK                         _______ _______ _______ _____ _____    ______ ____
ROOT
ATOM      1  C   UNL     1      -3.526   1.645   2.230  0.00  0.00    +0.000 A 
ATOM      2  N   UNL     1      -2.885   1.923   3.328  0.00  0.00    +0.000 NA
ATOM      3  C   UNL     1      -2.992   0.766   4.216  0.00  0.00    +0.000 A 
ATOM      4  N   UNL     1      -2.516   0.484   5.500  0.00  0.00    +0.000 NA
ATOM      5  C   UNL     1      -2.798  -0.737   6.079  0.00  0.00    +0.000 A 
ATOM      6  C   UNL     1      -3.547  -1.688   5.387  0.00  0.00    +0.000 A 
ATOM      7 CL   UNL     1      -3.889  -3.264   6.142  0.00  0.00    +0.000 Cl
ATOM      8  C   UNL     1      -4.025  -1.419   4.124  0.00  0.00    +0.000 A 
ATOM      9  C   UNL     1      -3.752  -0.194   3.525  0.00  0.00    +0.000 A 
ATOM     10  N   UNL     1      -4.073   0.361   2.303  0.00  0.00    +0.000 N 
ATOM     11  H   UNL     1      -4.621  -0.092   1.572  0.00  0.00    +0.000 HD
ENDROOT
BRANCH   5  12
ATOM     12  C   UNL     1      -2.290  -1.046   7.478  0.00  0.00    +0.000 A 
ATOM     13  C   UNL     1      -2.710  -0.303   8.564  0.00  0.00    +0.000 A 
ATOM     14  C   UNL     1      -2.312  -0.610   9.788  0.00  0.00    +0.000 A 
ATOM     15  C   UNL     1      -1.508  -1.634  10.019  0.00  0.00    +0.000 A 
ATOM     16  C   UNL     1      -1.048  -2.420   8.980  0.00  0.00    +0.000 A 
ATOM     17  C   UNL     1      -1.441  -2.123   7.683  0.00  0.00    +0.000 A 
BRANCH  15  18
ATOM     18  C   UNL     1      -1.084  -1.949  11.444  0.00  0.00    +0.000 A 
ATOM     19  C   UNL     1      -2.014  -2.323  12.393  0.00  0.00    +0.000 A 
ATOM     20  C   UNL     1      -1.635  -2.662  13.616  0.00  0.00    +0.000 A 
ATOM     21  C   UNL     1      -0.361  -2.662  13.971  0.00  0.00    +0.000 A 
ATOM     22  C   UNL     1       0.624  -2.299  13.072  0.00  0.00    +0.000 A 
ATOM     23  C   UNL     1       0.261  -1.932  11.784  0.00  0.00    +0.000 A 
ENDBRANCH  15  18
ENDBRANCH   5  12
BRANCH   1  24
ATOM     24  O   UNL     1      -3.596   2.498   1.097  0.00  0.00    +0.000 OA
BRANCH  24  29
ATOM     25  C   UNL     1       0.471   0.964   0.808  0.00  0.00    +0.000 C 
ATOM     26  C   UNL     1      -0.479   0.443   1.600  0.00  0.00    +0.000 C 
ATOM     27  O   UNL     1      -1.772   0.532   0.939  0.00  0.00    +0.000 OA
ATOM     28  C   UNL     1      -1.659   1.673  -0.090  0.00  0.00    +0.000 C 
ATOM     29  C   UNL     1      -2.407   2.884   0.424  0.00  0.00    +0.000 C 
ATOM     30  C   UNL     1      -1.565   3.544   1.266  0.00  0.00    +0.000 C 
ATOM     31  O   UNL     1      -0.188   3.366   0.831  0.00  0.00    +0.000 OA
ATOM     32  C   UNL     1      -0.159   2.075  -0.009  0.00  0.00    +0.000 C 
BRANCH  25  33
ATOM     33  O   UNL     1       0.944  -0.050  -0.066  0.00  0.00    +0.000 OA
ATOM     34  H   UNL     1       1.944  -0.050  -0.066  0.00  0.00    +0.000 HD
ENDBRANCH  25  33
ENDBRANCH  24  29
ENDBRANCH   1  24
TORSDOF 5
