
 OpenBabel03132512093D

 52 54  0  0  0  0  0  0  0  0999 V2000
    1.0557   -0.0434   -0.0708 C   0  0  0  0  0  0  0  0  0  0  0  0
    0.5824   -0.0830    1.2674 O   0  0  0  0  0  0  0  0  0  0  0  0
    0.9255   -1.1734    2.1099 C   0  0  0  0  0  0  0  0  0  0  0  0
   -0.0173   -1.9181    2.7900 C   0  0  0  0  0  0  0  0  0  0  0  0
    0.3281   -3.0228    3.4324 C   0  0  0  0  0  0  0  0  0  0  0  0
    1.5774   -3.4564    3.4430 C   0  0  0  0  0  0  0  0  0  0  0  0
    2.5726   -2.7612    2.7836 C   0  0  0  0  0  0  0  0  0  0  0  0
    3.9117   -3.2335    2.8001 O   0  0  0  0  0  0  0  0  0  0  0  0
    2.2470   -1.5958    2.1052 C   0  0  0  0  0  0  0  0  0  0  0  0
    3.2443   -0.8516    1.4211 O   0  0  0  0  0  0  0  0  0  0  0  0
    2.8937    0.3392    0.7316 C   0  0  0  0  0  0  0  0  0  0  0  0
    1.9224   -4.7348    4.1895 C   0  0  0  0  0  0  0  0  0  0  0  0
    1.5715   -4.5734    5.6596 C   0  0  0  0  0  0  0  0  0  0  0  0
    0.0842   -4.2919    5.7975 C   0  0  0  0  0  0  0  0  0  0  0  0
   -0.7072   -5.4499    5.2118 C   0  0  0  0  0  0  0  0  0  0  0  0
   -0.3622   -6.7283    5.9583 C   0  0  0  0  0  0  0  0  0  0  0  0
   -0.6900   -6.5776    7.3317 O   0  0  0  0  0  0  0  0  0  0  0  0
   -1.1535   -7.8863    5.3726 C   0  0  0  0  0  0  0  0  0  0  0  0
   -0.8026   -8.0477    3.9025 C   0  0  0  0  0  0  0  0  0  0  0  0
    0.6847   -8.3292    3.7646 C   0  0  0  0  0  0  0  0  0  0  0  0
    1.5498   -7.3295    3.5857 C   0  0  0  0  0  0  0  0  0  0  0  0
    2.9342   -7.6335    3.4623 C   0  0  0  0  0  0  0  0  0  0  0  0
    3.3302   -8.9611    3.2316 C   0  0  0  0  0  0  0  0  0  0  0  0
    4.6575   -9.2433    2.8132 O   0  0  0  0  0  0  0  0  0  0  0  0
    2.4816   -9.9320    3.4010 C   0  0  0  0  0  0  0  0  0  0  0  0
    1.1744   -9.6567    3.8241 C   0  0  0  0  0  0  0  0  0  0  0  0
    0.6991    0.8448   -0.5491 H   0  0  0  0  0  0  0  0  0  0  0  0
    0.6991   -0.9017   -0.6008 H   0  0  0  0  0  0  0  0  0  0  0  0
    2.1257   -0.0434   -0.0708 H   0  0  0  0  0  0  0  0  0  0  0  0
   -0.4218   -3.5784    3.9557 H   0  0  0  0  0  0  0  0  0  0  0  0
    4.6270   -2.7252    2.3207 H   0  0  0  0  0  0  0  0  0  0  0  0
    2.1738    0.1133   -0.0271 H   0  0  0  0  0  0  0  0  0  0  0  0
    2.4755    1.0413    1.4223 H   0  0  0  0  0  0  0  0  0  0  0  0
    3.7675    0.7604    0.2800 H   0  0  0  0  0  0  0  0  0  0  0  0
    1.3654   -5.5500    3.7772 H   0  0  0  0  0  0  0  0  0  0  0  0
    2.9694   -4.9330    4.0924 H   0  0  0  0  0  0  0  0  0  0  0  0
    1.8143   -5.4733    6.1851 H   0  0  0  0  0  0  0  0  0  0  0  0
    2.1285   -3.7582    6.0719 H   0  0  0  0  0  0  0  0  0  0  0  0
   -0.1629   -4.1783    6.8324 H   0  0  0  0  0  0  0  0  0  0  0  0
   -0.1587   -3.3920    5.2720 H   0  0  0  0  0  0  0  0  0  0  0  0
   -1.7542   -5.2517    5.3089 H   0  0  0  0  0  0  0  0  0  0  0  0
   -0.4601   -5.5635    4.1770 H   0  0  0  0  0  0  0  0  0  0  0  0
    0.6848   -6.9265    5.8613 H   0  0  0  0  0  0  0  0  0  0  0  0
   -0.1694   -5.8157    7.7171 H   0  0  0  0  0  0  0  0  0  0  0  0
   -0.9107   -8.7862    5.8981 H   0  0  0  0  0  0  0  0  0  0  0  0
   -2.2005   -7.6881    5.4697 H   0  0  0  0  0  0  0  0  0  0  0  0
   -1.3597   -8.8629    3.4902 H   0  0  0  0  0  0  0  0  0  0  0  0
   -1.0455   -7.1478    3.3770 H   0  0  0  0  0  0  0  0  0  0  0  0
    1.2084   -6.3166    3.5359 H   0  0  0  0  0  0  0  0  0  0  0  0
    3.6668   -6.8579    3.5445 H   0  0  0  0  0  0  0  0  0  0  0  0
    5.3101   -8.4969    2.6829 H   0  0  0  0  0  0  0  0  0  0  0  0
    0.5500  -10.4448    4.1899 H   0  0  0  0  0  0  0  0  0  0  0  0
  1  2  1  0  0  0  0
  1 27  1  0  0  0  0
  1 28  1  0  0  0  0
  1 29  1  0  0  0  0
  2  3  1  0  0  0  0
  3  4  1  0  0  0  0
  3  9  2  0  0  0  0
  4  5  2  0  0  0  0
  4 25  1  0  0  0  0
  5  6  1  0  0  0  0
  5 30  1  0  0  0  0
  6  7  2  0  0  0  0
  6 12  1  0  0  0  0
  7  8  1  0  0  0  0
  7  9  1  0  0  0  0
  8 31  1  0  0  0  0
  9 10  1  0  0  0  0
 10 11  1  0  0  0  0
 11 32  1  0  0  0  0
 11 33  1  0  0  0  0
 11 34  1  0  0  0  0
 12 13  1  0  0  0  0
 12 35  1  0  0  0  0
 12 36  1  0  0  0  0
 13 14  1  0  0  0  0
 13 37  1  0  0  0  0
 13 38  1  0  0  0  0
 14 15  1  0  0  0  0
 14 39  1  0  0  0  0
 14 40  1  0  0  0  0
 15 16  1  0  0  0  0
 15 41  1  0  0  0  0
 15 42  1  0  0  0  0
 16 17  1  0  0  0  0
 16 18  1  0  0  0  0
 16 43  1  0  0  0  0
 17 44  1  0  0  0  0
 18 19  1  0  0  0  0
 18 45  1  0  0  0  0
 18 46  1  0  0  0  0
 19 20  1  0  0  0  0
 19 47  1  0  0  0  0
 19 48  1  0  0  0  0
 20 21  1  0  0  0  0
 20 26  2  0  0  0  0
 21 22  2  0  0  0  0
 21 49  1  0  0  0  0
 22 23  1  0  0  0  0
 22 50  1  0  0  0  0
 23 24  1  0  0  0  0
 23 25  2  0  0  0  0
 24 51  1  0  0  0  0
 25 26  1  0  0  0  0
 26 52  1  0  0  0  0
M  END
