REMARK  Name = 
REMARK  7 active torsions:
REMARK  status: ('A' for Active; 'I' for Inactive)
REMARK    1  A    between atoms: C_1  and  O_2
REMARK    2  A    between atoms: O_2  and  C_3
REMARK    3  A    between atoms: C_7  and  O_8
REMARK    4  A    between atoms: C_9  and  O_10
REMARK    5  A    between atoms: O_10  and  C_11
REMARK    6  A    between atoms: C_16  and  O_17
REMARK    7  A    between atoms: C_23  and  O_24
REMARK                            x       y       z     vdW  Elec       q    Type
REMARK                         _______ _______ _______ _____ _____    ______ ____
ROOT
ATOM      1  C   UNL     1       0.815  -1.262   2.137  0.00  0.00    +0.000 A 
ATOM      2  C   UNL     1      -0.123  -2.061   2.759  0.00  0.00    +0.000 A 
ATOM      3  C   UNL     1       0.227  -3.213   3.309  0.00  0.00    +0.000 A 
ATOM      4  C   UNL     1       1.478  -3.643   3.280  0.00  0.00    +0.000 A 
ATOM      5  C   UNL     1       2.468  -2.895   2.674  0.00  0.00    +0.000 A 
ATOM      6  C   UNL     1       2.137  -1.679   2.093  0.00  0.00    +0.000 A 
ATOM      7  C   UNL     1       1.829  -4.976   3.921  0.00  0.00    +0.000 C 
ATOM      8  C   UNL     1       1.484  -4.934   5.400  0.00  0.00    +0.000 C 
ATOM      9  C   UNL     1      -0.004  -4.668   5.566  0.00  0.00    +0.000 C 
ATOM     10  C   UNL     1      -0.795  -5.777   4.893  0.00  0.00    +0.000 C 
ATOM     11  C   UNL     1      -0.444  -7.110   5.534  0.00  0.00    +0.000 C 
ATOM     12  C   UNL     1      -1.236  -8.220   4.861  0.00  0.00    +0.000 C 
ATOM     13  C   UNL     1      -0.891  -8.262   3.381  0.00  0.00    +0.000 C 
ATOM     14  C   UNL     1       0.597  -8.528   3.215  0.00  0.00    +0.000 A 
ATOM     15  C   UNL     1       1.448  -7.519   3.023  0.00  0.00    +0.000 A 
ATOM     16  C   UNL     1       2.833  -7.809   2.873  0.00  0.00    +0.000 A 
ATOM     17  C   UNL     1       3.238  -9.132   2.630  0.00  0.00    +0.000 A 
ATOM     18  C   UNL     1       2.402 -10.112   2.813  0.00  0.00    +0.000 A 
ATOM     19  C   UNL     1       1.100  -9.851   3.261  0.00  0.00    +0.000 A 
ENDROOT
BRANCH   1  21
ATOM     20  C   UNL     1       0.945   0.055   0.064  0.00  0.00    +0.000 C 
ATOM     21  O   UNL     1       0.472  -0.102   1.393  0.00  0.00    +0.000 OA
ENDBRANCH   1  21
BRANCH   5  22
ATOM     22  O   UNL     1       3.808  -3.364   2.647  0.00  0.00    +0.000 OA
ATOM     23  H   UNL     1       4.521  -2.817   2.207  0.00  0.00    +0.000 HD
ENDBRANCH   5  22
BRANCH   6  24
ATOM     24  O   UNL     1       3.130  -0.880   1.466  0.00  0.00    +0.000 OA
ATOM     25  C   UNL     1       2.774   0.361   0.876  0.00  0.00    +0.000 C 
ENDBRANCH   6  24
BRANCH  11  26
ATOM     26  O   UNL     1      -0.766  -7.071   6.916  0.00  0.00    +0.000 OA
ATOM     27  H   UNL     1      -0.246  -6.341   7.359  0.00  0.00    +0.000 HD
ENDBRANCH  11  26
BRANCH  17  28
ATOM     28  O   UNL     1       4.560  -9.400   2.187  0.00  0.00    +0.000 OA
ATOM     29  H   UNL     1       5.202  -8.646   2.046  0.00  0.00    +0.000 HD
ENDBRANCH  17  28
TORSDOF 5
