REMARK  Name = 
REMARK  7 active torsions:
REMARK  status: ('A' for Active; 'I' for Inactive)
REMARK    1  A    between atoms: C_1  and  O_2
REMARK    2  A    between atoms: O_2  and  C_3
REMARK    3  A    between atoms: C_7  and  O_8
REMARK    4  A    between atoms: C_9  and  O_10
REMARK    5  A    between atoms: O_10  and  C_11
REMARK    6  A    between atoms: C_16  and  O_17
REMARK    7  A    between atoms: C_23  and  O_24
REMARK                            x       y       z     vdW  Elec       q    Type
REMARK                         _______ _______ _______ _____ _____    ______ ____
ROOT
ATOM      1  C   UNL     1       0.925  -1.173   2.110  0.00  0.00    +0.000 A 
ATOM      2  C   UNL     1      -0.017  -1.918   2.790  0.00  0.00    +0.000 A 
ATOM      3  C   UNL     1       0.328  -3.023   3.432  0.00  0.00    +0.000 A 
ATOM      4  C   UNL     1       1.577  -3.456   3.443  0.00  0.00    +0.000 A 
ATOM      5  C   UNL     1       2.573  -2.761   2.784  0.00  0.00    +0.000 A 
ATOM      6  C   UNL     1       2.247  -1.596   2.105  0.00  0.00    +0.000 A 
ATOM      7  C   UNL     1       1.922  -4.735   4.189  0.00  0.00    +0.000 C 
ATOM      8  C   UNL     1       1.571  -4.573   5.660  0.00  0.00    +0.000 C 
ATOM      9  C   UNL     1       0.084  -4.292   5.798  0.00  0.00    +0.000 C 
ATOM     10  C   UNL     1      -0.707  -5.450   5.212  0.00  0.00    +0.000 C 
ATOM     11  C   UNL     1      -0.362  -6.728   5.958  0.00  0.00    +0.000 C 
ATOM     12  C   UNL     1      -1.153  -7.886   5.373  0.00  0.00    +0.000 C 
ATOM     13  C   UNL     1      -0.803  -8.048   3.902  0.00  0.00    +0.000 C 
ATOM     14  C   UNL     1       0.685  -8.329   3.765  0.00  0.00    +0.000 A 
ATOM     15  C   UNL     1       1.550  -7.330   3.586  0.00  0.00    +0.000 A 
ATOM     16  C   UNL     1       2.934  -7.633   3.462  0.00  0.00    +0.000 A 
ATOM     17  C   UNL     1       3.330  -8.961   3.232  0.00  0.00    +0.000 A 
ATOM     18  C   UNL     1       2.482  -9.932   3.401  0.00  0.00    +0.000 A 
ATOM     19  C   UNL     1       1.174  -9.657   3.824  0.00  0.00    +0.000 A 
ENDROOT
BRANCH   1  21
ATOM     20  C   UNL     1       1.056  -0.043  -0.071  0.00  0.00    +0.000 C 
ATOM     21  O   UNL     1       0.582  -0.083   1.267  0.00  0.00    +0.000 OA
ENDBRANCH   1  21
BRANCH   5  22
ATOM     22  O   UNL     1       3.912  -3.233   2.800  0.00  0.00    +0.000 OA
ATOM     23  H   UNL     1       4.627  -2.725   2.321  0.00  0.00    +0.000 HD
ENDBRANCH   5  22
BRANCH   6  24
ATOM     24  O   UNL     1       3.244  -0.852   1.421  0.00  0.00    +0.000 OA
ATOM     25  C   UNL     1       2.894   0.339   0.732  0.00  0.00    +0.000 C 
ENDBRANCH   6  24
BRANCH  11  26
ATOM     26  O   UNL     1      -0.690  -6.578   7.332  0.00  0.00    +0.000 OA
ATOM     27  H   UNL     1      -0.169  -5.816   7.717  0.00  0.00    +0.000 HD
ENDBRANCH  11  26
BRANCH  17  28
ATOM     28  O   UNL     1       4.657  -9.243   2.813  0.00  0.00    +0.000 OA
ATOM     29  H   UNL     1       5.310  -8.497   2.683  0.00  0.00    +0.000 HD
ENDBRANCH  17  28
TORSDOF 5
