
 OpenBabel03132514253D

 52 54  0  0  0  0  0  0  0  0999 V2000
    0.9453    0.0546    0.0635 C   0  0  0  0  0  0  0  0  0  0  0  0
    0.4720   -0.1021    1.3931 O   0  0  0  0  0  0  0  0  0  0  0  0
    0.8150   -1.2621    2.1368 C   0  0  0  0  0  0  0  0  0  0  0  0
   -0.1232   -2.0611    2.7590 C   0  0  0  0  0  0  0  0  0  0  0  0
    0.2273   -3.2129    3.3095 C   0  0  0  0  0  0  0  0  0  0  0  0
    1.4776   -3.6429    3.2802 C   0  0  0  0  0  0  0  0  0  0  0  0
    2.4684   -2.8947    2.6744 C   0  0  0  0  0  0  0  0  0  0  0  0
    3.8085   -3.3635    2.6475 O   0  0  0  0  0  0  0  0  0  0  0  0
    2.1374   -1.6795    2.0928 C   0  0  0  0  0  0  0  0  0  0  0  0
    3.1301   -0.8805    1.4663 O   0  0  0  0  0  0  0  0  0  0  0  0
    2.7740    0.3608    0.8758 C   0  0  0  0  0  0  0  0  0  0  0  0
    1.8285   -4.9760    3.9205 C   0  0  0  0  0  0  0  0  0  0  0  0
    1.4836   -4.9337    5.4003 C   0  0  0  0  0  0  0  0  0  0  0  0
   -0.0036   -4.6678    5.5665 C   0  0  0  0  0  0  0  0  0  0  0  0
   -0.7951   -5.7772    4.8933 C   0  0  0  0  0  0  0  0  0  0  0  0
   -0.4441   -7.1103    5.5337 C   0  0  0  0  0  0  0  0  0  0  0  0
   -0.7663   -7.0708    6.9161 O   0  0  0  0  0  0  0  0  0  0  0  0
   -1.2356   -8.2197    4.8605 C   0  0  0  0  0  0  0  0  0  0  0  0
   -0.8907   -8.2620    3.3807 C   0  0  0  0  0  0  0  0  0  0  0  0
    0.5966   -8.5280    3.2145 C   0  0  0  0  0  0  0  0  0  0  0  0
    1.4482   -7.5192    3.0226 C   0  0  0  0  0  0  0  0  0  0  0  0
    2.8330   -7.8090    2.8725 C   0  0  0  0  0  0  0  0  0  0  0  0
    3.2377   -9.1320    2.6304 C   0  0  0  0  0  0  0  0  0  0  0  0
    4.5597   -9.3998    2.1865 O   0  0  0  0  0  0  0  0  0  0  0  0
    2.4021  -10.1118    2.8126 C   0  0  0  0  0  0  0  0  0  0  0  0
    1.1004   -9.8507    3.2607 C   0  0  0  0  0  0  0  0  0  0  0  0
    0.5886    0.9813   -0.3352 H   0  0  0  0  0  0  0  0  0  0  0  0
    0.5886   -0.7540   -0.5397 H   0  0  0  0  0  0  0  0  0  0  0  0
    2.0153    0.0546    0.0635 H   0  0  0  0  0  0  0  0  0  0  0  0
   -0.5192   -3.8104    3.7898 H   0  0  0  0  0  0  0  0  0  0  0  0
    4.5207   -2.8167    2.2072 H   0  0  0  0  0  0  0  0  0  0  0  0
    2.0513    0.1945    0.1044 H   0  0  0  0  0  0  0  0  0  0  0  0
    2.3574    1.0043    1.6222 H   0  0  0  0  0  0  0  0  0  0  0  0
    3.6450    0.8188    0.4557 H   0  0  0  0  0  0  0  0  0  0  0  0
    1.2714   -5.7570    3.4466 H   0  0  0  0  0  0  0  0  0  0  0  0
    2.8755   -5.1633    3.8035 H   0  0  0  0  0  0  0  0  0  0  0  0
    1.7307   -5.8722    5.8511 H   0  0  0  0  0  0  0  0  0  0  0  0
    2.0408   -4.1528    5.8742 H   0  0  0  0  0  0  0  0  0  0  0  0
   -0.2464   -4.6380    6.6082 H   0  0  0  0  0  0  0  0  0  0  0  0
   -0.2507   -3.7293    5.1157 H   0  0  0  0  0  0  0  0  0  0  0  0
   -1.8421   -5.5899    5.0103 H   0  0  0  0  0  0  0  0  0  0  0  0
   -0.5523   -5.8069    3.8516 H   0  0  0  0  0  0  0  0  0  0  0  0
    0.6028   -7.2975    5.4167 H   0  0  0  0  0  0  0  0  0  0  0  0
   -0.2456   -6.3409    7.3590 H   0  0  0  0  0  0  0  0  0  0  0  0
   -0.9885   -9.1581    5.3112 H   0  0  0  0  0  0  0  0  0  0  0  0
   -2.2826   -8.0325    4.9775 H   0  0  0  0  0  0  0  0  0  0  0  0
   -1.4479   -9.0430    2.9068 H   0  0  0  0  0  0  0  0  0  0  0  0
   -1.1378   -7.3236    2.9299 H   0  0  0  0  0  0  0  0  0  0  0  0
    1.0959   -6.5096    2.9823 H   0  0  0  0  0  0  0  0  0  0  0  0
    3.5593   -7.0265    2.9434 H   0  0  0  0  0  0  0  0  0  0  0  0
    5.2024   -8.6465    2.0464 H   0  0  0  0  0  0  0  0  0  0  0  0
    0.4907  -10.6460    3.6357 H   0  0  0  0  0  0  0  0  0  0  0  0
  1  2  1  0  0  0  0
  1 27  1  0  0  0  0
  1 28  1  0  0  0  0
  1 29  1  0  0  0  0
  2  3  1  0  0  0  0
  3  4  1  0  0  0  0
  3  9  2  0  0  0  0
  4  5  2  0  0  0  0
  4 25  1  0  0  0  0
  5  6  1  0  0  0  0
  5 30  1  0  0  0  0
  6  7  2  0  0  0  0
  6 12  1  0  0  0  0
  7  8  1  0  0  0  0
  7  9  1  0  0  0  0
  8 31  1  0  0  0  0
  9 10  1  0  0  0  0
 10 11  1  0  0  0  0
 11 32  1  0  0  0  0
 11 33  1  0  0  0  0
 11 34  1  0  0  0  0
 12 13  1  0  0  0  0
 12 35  1  0  0  0  0
 12 36  1  0  0  0  0
 13 14  1  0  0  0  0
 13 37  1  0  0  0  0
 13 38  1  0  0  0  0
 14 15  1  0  0  0  0
 14 39  1  0  0  0  0
 14 40  1  0  0  0  0
 15 16  1  0  0  0  0
 15 41  1  0  0  0  0
 15 42  1  0  0  0  0
 16 17  1  0  0  0  0
 16 18  1  0  0  0  0
 16 43  1  0  0  0  0
 17 44  1  0  0  0  0
 18 19  1  0  0  0  0
 18 45  1  0  0  0  0
 18 46  1  0  0  0  0
 19 20  1  0  0  0  0
 19 47  1  0  0  0  0
 19 48  1  0  0  0  0
 20 21  1  0  0  0  0
 20 26  2  0  0  0  0
 21 22  2  0  0  0  0
 21 49  1  0  0  0  0
 22 23  1  0  0  0  0
 22 50  1  0  0  0  0
 23 24  1  0  0  0  0
 23 25  2  0  0  0  0
 24 51  1  0  0  0  0
 25 26  1  0  0  0  0
 26 52  1  0  0  0  0
M  END
