REMARK  Name = 
REMARK  6 active torsions:
REMARK  status: ('A' for Active; 'I' for Inactive)
REMARK    1  A    between atoms: C_1  and  C_2
REMARK    2  A    between atoms: N_4  and  CA_5
REMARK    3  A    between atoms: CA_5  and  CB_6
REMARK    4  A    between atoms: CA_5  and  C_8
REMARK    5  A    between atoms: CB_6  and  SG_7
REMARK    6  A    between atoms: C_8  and  OXT_10
REMARK                            x       y       z     vdW  Elec       q    Type
REMARK                         _______ _______ _______ _____ _____    ______ ____
ROOT
ATOM      1  CA  CYS A   1       1.701  -0.017   2.783  0.00  0.00    +0.000 C 
ENDROOT
BRANCH   1   5
ATOM      2  C   UNK A   0       1.008   0.001  -0.100  0.00  0.00    +0.000 C 
ATOM      3  C   UNK A   0       0.501   1.091   0.830  0.00  0.00    +0.000 C 
ATOM      4  O   UNK A   0      -0.230   2.026   0.375  0.00  0.00    +0.000 OA
ATOM      5  N   CYS A   1       0.856   1.065   2.257  0.00  0.00    +0.000 N 
ATOM      6  H   CYS A   1       0.516   1.796   2.881  0.00  0.00    +0.000 HD
ENDBRANCH   1   5
BRANCH   1   7
ATOM      7  C   CYS A   1       0.941  -0.776   3.859  0.00  0.00    +0.000 C 
ATOM      8  O   CYS A   1       0.711  -2.018   3.718  0.00  0.00    +0.000 OA
BRANCH   7   9
ATOM      9  OXT CYS A   1       0.489  -0.097   5.021  0.00  0.00    +0.000 OA
ATOM     10  HXT CYS A   1      -0.011  -0.596   5.729  0.00  0.00    +0.000 HD
ENDBRANCH   7   9
ENDBRANCH   1   7
BRANCH   1  11
ATOM     11  CB  CYS A   1       2.968   0.575   3.380  0.00  0.00    +0.000 C 
BRANCH  11  12
ATOM     12  SG  CYS A   1       2.531   1.707   4.722  0.00  0.00    +0.000 S 
ATOM     13  HG  CYS A   1       1.749   2.708   4.235  0.00  0.00    +0.000 HD
ENDBRANCH  11  12
ENDBRANCH   1  11
TORSDOF 5
