REMARK  Name = 
REMARK  6 active torsions:
REMARK  status: ('A' for Active; 'I' for Inactive)
REMARK    1  A    between atoms: C_1  and  C_2
REMARK    2  A    between atoms: N_4  and  CA_5
REMARK    3  A    between atoms: CA_5  and  CB_6
REMARK    4  A    between atoms: CA_5  and  C_8
REMARK    5  A    between atoms: CB_6  and  SG_7
REMARK    6  A    between atoms: C_8  and  OXT_10
REMARK                            x       y       z     vdW  Elec       q    Type
REMARK                         _______ _______ _______ _____ _____    ______ ____
ROOT
ATOM      1  CA  CYS A   1       1.713   1.065  -2.778  0.00  0.00    +0.000 C 
ENDROOT
BRANCH   1   5
ATOM      2  C   UNK A   0       1.019   0.004  -0.098  0.00  0.00    +0.000 C 
ATOM      3  C   UNK A   0       0.513  -0.675  -1.360  0.00  0.00    +0.000 C 
ATOM      4  O   UNK A   0      -0.218  -1.712  -1.275  0.00  0.00    +0.000 OA
ATOM      5  N   CYS A   1       0.868  -0.133  -2.679  0.00  0.00    +0.000 N 
ATOM      6  H   CYS A   1       0.528  -0.589  -3.526  0.00  0.00    +0.000 HD
ENDBRANCH   1   5
BRANCH   1   7
ATOM      7  C   CYS A   1       0.953   2.163  -3.506  0.00  0.00    +0.000 C 
ATOM      8  O   CYS A   1       0.723   3.269  -2.924  0.00  0.00    +0.000 OA
BRANCH   7   9
ATOM      9  OXT CYS A   1       0.500   1.952  -4.835  0.00  0.00    +0.000 OA
ATOM     10  HXT CYS A   1       0.000   2.674  -5.313  0.00  0.00    +0.000 HD
ENDBRANCH   7   9
ENDBRANCH   1   7
BRANCH   1  11
ATOM     11  CB  CYS A   1       2.980   0.730  -3.549  0.00  0.00    +0.000 C 
BRANCH  11  12
ATOM     12  SG  CYS A   1       2.542   0.162  -5.211  0.00  0.00    +0.000 S 
ATOM     13  HG  CYS A   1       1.760  -0.947  -5.119  0.00  0.00    +0.000 HD
ENDBRANCH  11  12
ENDBRANCH   1  11
TORSDOF 5
