
 OpenBabel03132512093D

 19 18  0  0  0  0  0  0  0  0999 V2000
    1.0078    0.0013   -0.0997 C   0  0  0  0  0  0  0  0  0  0  0  0
    0.5011    1.0915    0.8304 C   0  0  0  0  0  0  0  0  0  0  0  0
   -0.2295    2.0264    0.3751 O   0  0  0  0  0  0  0  0  0  0  0  0
    0.8562    1.0646    2.2566 N   0  0  0  0  0  0  0  0  0  0  0  0
    1.7014   -0.0167    2.7833 C   0  0  0  0  0  0  0  0  0  0  0  0
    2.9680    0.5750    3.3798 C   0  0  0  0  0  0  0  0  0  0  0  0
    2.5308    1.7074    4.7224 S   0  0  0  0  0  0  0  0  0  0  0  0
    0.9414   -0.7756    3.8589 C   0  0  0  0  0  0  0  0  0  0  0  0
    0.7111   -2.0175    3.7180 O   0  0  0  0  0  0  0  0  0  0  0  0
    0.4887   -0.0970    5.0212 O   0  0  0  0  0  0  0  0  0  0  0  0
    0.6511    0.1846   -1.0917 H   0  0  0  0  0  0  0  0  0  0  0  0
    0.6511   -0.9494    0.2376 H   0  0  0  0  0  0  0  0  0  0  0  0
    2.0778    0.0013   -0.0997 H   0  0  0  0  0  0  0  0  0  0  0  0
    0.5162    1.7962    2.8808 H   0  0  0  0  0  0  0  0  0  0  0  0
    1.9599   -0.6862    1.9896 H   0  0  0  0  0  0  0  0  0  0  0  0
    3.5832   -0.2121    3.7632 H   0  0  0  0  0  0  0  0  0  0  0  0
    3.5030    1.1092    2.6227 H   0  0  0  0  0  0  0  0  0  0  0  0
    1.7489    2.7078    4.2351 H   0  0  0  0  0  0  0  0  0  0  0  0
   -0.0113   -0.5962    5.7288 H   0  0  0  0  0  0  0  0  0  0  0  0
  1  2  1  0  0  0  0
  1 11  1  0  0  0  0
  1 12  1  0  0  0  0
  1 13  1  0  0  0  0
  2  3  2  0  0  0  0
  2  4  1  0  0  0  0
  4  5  1  0  0  0  0
  4 14  1  0  0  0  0
  5  6  1  0  0  0  0
  5  8  1  0  0  0  0
  5 15  1  0  0  0  0
  6  7  1  0  0  0  0
  6 16  1  0  0  0  0
  6 17  1  0  0  0  0
  7 18  1  0  0  0  0
  8  9  2  0  0  0  0
  8 10  1  0  0  0  0
 10 19  1  0  0  0  0
M  END
