REMARK  Name = 
REMARK  4 active torsions:
REMARK  status: ('A' for Active; 'I' for Inactive)
REMARK    1  A    between atoms: C_2  and  C_3
REMARK    2  A    between atoms: C_2  and  C_4
REMARK    3  A    between atoms: C_12  and  C_13
REMARK    4  A    between atoms: C_14  and  C_15
REMARK                            x       y       z     vdW  Elec       q    Type
REMARK                         _______ _______ _______ _____ _____    ______ ____
ROOT
ATOM      1  C   UNL     1       1.139   0.361   2.530  0.00  0.00    +0.000 C 
ATOM      2  C   UNL     1       0.620  -0.636   3.473  0.00  0.00    +0.000 C 
ATOM      3  C   UNL     1       1.660  -0.568   4.959  0.00  0.00    +0.000 C 
ATOM      4  C   UNL     1       1.419   1.139   5.349  0.00  0.00    +0.000 C 
ATOM      5  C   UNL     1       1.327   1.506   6.657  0.00  0.00    +0.000 C 
ATOM      6  C   UNL     1       1.089   2.946   7.034  0.00  0.00    +0.000 C 
ATOM      7  O   UNL     1       0.415   3.348   8.033  0.00  0.00    +0.000 OA
ATOM      8  C   UNL     1       1.792   3.843   6.014  0.00  0.00    +0.000 C 
ATOM      9  C   UNL     1       1.451   3.383   4.625  0.00  0.00    +0.000 C 
ATOM     10  C   UNL     1       0.039   3.914   4.440  0.00  0.00    +0.000 C 
ATOM     11  C   UNL     1       1.309   2.064   4.333  0.00  0.00    +0.000 C 
ATOM     12  C   UNL     1       1.740   0.606   4.326  0.00  0.00    +0.000 C 
ATOM     13  C   UNL     1       1.012   1.732   2.951  0.00  0.00    +0.000 C 
ENDROOT
BRANCH   1  15
ATOM     14  C   UNL     1       1.059   0.060   0.054  0.00  0.00    +0.000 C 
ATOM     15  C   UNL     1       0.379   0.202   1.224  0.00  0.00    +0.000 C 
ATOM     16  C   UNL     1      -1.141   0.202   1.224  0.00  0.00    +0.000 C 
ENDBRANCH   1  15
TORSDOF 1
