
 OpenBabel03132512093D

 38 39  0  0  0  0  0  0  0  0999 V2000
    1.0589    0.0601    0.0540 C   0  0  0  0  0  0  0  0  0  0  0  0
    0.3787    0.2022    1.2236 C   0  0  0  0  0  0  0  0  0  0  0  0
   -1.1413    0.2022    1.2236 C   0  0  0  0  0  0  0  0  0  0  0  0
    1.1387    0.3610    2.5303 C   0  0  0  0  0  0  0  0  0  0  0  0
    0.6199   -0.6360    3.4725 C   0  0  0  0  0  0  0  0  0  0  0  0
    1.6604   -0.5684    4.9591 C   0  0  0  0  0  0  0  0  0  0  0  0
    1.4190    1.1389    5.3493 C   0  0  0  0  0  0  0  0  0  0  0  0
    1.3270    1.5064    6.6566 C   0  0  0  0  0  0  0  0  0  0  0  0
    1.0891    2.9459    7.0335 C   0  0  0  0  0  0  0  0  0  0  0  0
    0.4154    3.3481    8.0332 O   0  0  0  0  0  0  0  0  0  0  0  0
    1.7925    3.8426    6.0137 C   0  0  0  0  0  0  0  0  0  0  0  0
    1.4506    3.3827    4.6249 C   0  0  0  0  0  0  0  0  0  0  0  0
    0.0386    3.9143    4.4399 C   0  0  0  0  0  0  0  0  0  0  0  0
    1.3093    2.0641    4.3331 C   0  0  0  0  0  0  0  0  0  0  0  0
    1.7397    0.6063    4.3259 C   0  0  0  0  0  0  0  0  0  0  0  0
    1.0121    1.7319    2.9508 C   0  0  0  0  0  0  0  0  0  0  0  0
    0.5239   -0.0516   -0.8659 H   0  0  0  0  0  0  0  0  0  0  0  0
    2.1289    0.0601    0.0540 H   0  0  0  0  0  0  0  0  0  0  0  0
   -1.4980   -0.6042    1.8297 H   0  0  0  0  0  0  0  0  0  0  0  0
   -1.4980    1.1304    1.6189 H   0  0  0  0  0  0  0  0  0  0  0  0
   -1.4980    0.0806    0.2221 H   0  0  0  0  0  0  0  0  0  0  0  0
    2.1888    0.1736    2.4469 H   0  0  0  0  0  0  0  0  0  0  0  0
    0.6422   -1.6140    3.0390 H   0  0  0  0  0  0  0  0  0  0  0  0
   -0.3946   -0.4078    3.7251 H   0  0  0  0  0  0  0  0  0  0  0  0
    2.6756   -0.8836    4.8370 H   0  0  0  0  0  0  0  0  0  0  0  0
    1.3041   -1.2156    5.7332 H   0  0  0  0  0  0  0  0  0  0  0  0
    1.4245    0.7667    7.4235 H   0  0  0  0  0  0  0  0  0  0  0  0
    1.4696    4.8543    6.1448 H   0  0  0  0  0  0  0  0  0  0  0  0
    2.8511    3.7853    6.1583 H   0  0  0  0  0  0  0  0  0  0  0  0
    2.2233    3.7534    3.9844 H   0  0  0  0  0  0  0  0  0  0  0  0
    0.0338    4.9736    4.5907 H   0  0  0  0  0  0  0  0  0  0  0  0
   -0.2986    3.6935    3.4487 H   0  0  0  0  0  0  0  0  0  0  0  0
   -0.6132    3.4500    5.1501 H   0  0  0  0  0  0  0  0  0  0  0  0
    2.6723    0.5123    3.8099 H   0  0  0  0  0  0  0  0  0  0  0  0
    1.8530    0.2629    5.3329 H   0  0  0  0  0  0  0  0  0  0  0  0
    0.9966    0.0175    3.8298 H   0  0  0  0  0  0  0  0  0  0  0  0
    1.7636    2.2477    2.3904 H   0  0  0  0  0  0  0  0  0  0  0  0
    0.0002    2.0266    2.7659 H   0  0  0  0  0  0  0  0  0  0  0  0
  1  2  2  0  0  0  0
  1 17  1  0  0  0  0
  1 18  1  0  0  0  0
  2  3  1  0  0  0  0
  2  4  1  0  0  0  0
  3 19  1  0  0  0  0
  3 20  1  0  0  0  0
  3 21  1  0  0  0  0
  4  5  1  0  0  0  0
  4 16  1  0  0  0  0
  4 22  1  0  0  0  0
  5  6  1  0  0  0  0
  5 23  1  0  0  0  0
  5 24  1  0  0  0  0
  6  7  1  0  0  0  0
  6 25  1  0  0  0  0
  6 26  1  0  0  0  0
  7  8  2  0  0  0  0
  7 14  1  0  0  0  0
  8  9  1  0  0  0  0
  8 27  1  0  0  0  0
  9 10  2  0  0  0  0
  9 11  1  0  0  0  0
 11 12  1  0  0  0  0
 11 28  1  0  0  0  0
 11 29  1  0  0  0  0
 12 13  1  0  0  0  0
 12 14  1  0  0  0  0
 12 30  1  0  0  0  0
 13 31  1  0  0  0  0
 13 32  1  0  0  0  0
 13 33  1  0  0  0  0
 14 15  1  0  0  0  0
 14 16  1  0  0  0  0
 15 34  1  0  0  0  0
 15 35  1  0  0  0  0
 15 36  1  0  0  0  0
 16 37  1  0  0  0  0
 16 38  1  0  0  0  0
M  END
