REMARK  Name = 
REMARK  4 active torsions:
REMARK  status: ('A' for Active; 'I' for Inactive)
REMARK    1  A    between atoms: C_2  and  C_3
REMARK    2  A    between atoms: C_2  and  C_4
REMARK    3  A    between atoms: C_12  and  C_13
REMARK    4  A    between atoms: C_14  and  C_15
REMARK                            x       y       z     vdW  Elec       q    Type
REMARK                         _______ _______ _______ _____ _____    ______ ____
ROOT
ATOM      1  C   UNL     1       1.035   1.172  -2.297  0.00  0.00    +0.000 C 
ATOM      2  C   UNL     1       2.448   0.780  -2.265  0.00  0.00    +0.000 C 
ATOM      3  C   UNL     1       3.199   1.335  -3.823  0.00  0.00    +0.000 C 
ATOM      4  C   UNL     1       2.817   3.055  -3.679  0.00  0.00    +0.000 C 
ATOM      5  C   UNL     1       3.727   3.968  -4.117  0.00  0.00    +0.000 C 
ATOM      6  C   UNL     1       3.457   5.444  -3.985  0.00  0.00    +0.000 C 
ATOM      7  O   UNL     1       4.331   6.340  -3.766  0.00  0.00    +0.000 OA
ATOM      8  C   UNL     1       1.957   5.686  -4.157  0.00  0.00    +0.000 C 
ATOM      9  C   UNL     1       1.193   4.721  -3.295  0.00  0.00    +0.000 C 
ATOM     10  C   UNL     1       1.349   5.324  -1.909  0.00  0.00    +0.000 C 
ATOM     11  C   UNL     1       1.623   3.446  -3.112  0.00  0.00    +0.000 C 
ATOM     12  C   UNL     1       2.122   2.086  -3.574  0.00  0.00    +0.000 C 
ATOM     13  C   UNL     1       0.788   2.590  -2.287  0.00  0.00    +0.000 C 
ENDROOT
BRANCH   1  15
ATOM     14  C   UNL     1       0.956   0.064  -0.063  0.00  0.00    +0.000 C 
ATOM     15  C   UNL     1       0.275   0.588  -1.118  0.00  0.00    +0.000 C 
ATOM     16  C   UNL     1      -1.245   0.588  -1.118  0.00  0.00    +0.000 C 
ENDBRANCH   1  15
TORSDOF 1
