REMARK  Name = 
REMARK  8 active torsions:
REMARK  status: ('A' for Active; 'I' for Inactive)
REMARK    1  A    between atoms: C_2  and  C_3
REMARK    2  A    between atoms: C_3  and  C_4
REMARK    3  A    between atoms: C_7  and  O_8
REMARK    4  A    between atoms: O_8  and  C_9
REMARK    5  A    between atoms: C_11  and  C_12
REMARK    6  A    between atoms: C_12  and  C_13
REMARK    7  A    between atoms: C_16  and  O_17
REMARK    8  A    between atoms: C_18  and  O_19
REMARK                            x       y       z     vdW  Elec       q    Type
REMARK                         _______ _______ _______ _____ _____    ______ ____
ROOT
ATOM      1  C   UNL     1      -2.608  -2.825   6.162  0.00  0.00    +0.000 A 
ATOM      2  C   UNL     1      -3.795  -3.428   6.544  0.00  0.00    +0.000 A 
ATOM      3  C   UNL     1      -3.642  -4.762   6.990  0.00  0.00    +0.000 A 
ATOM      4  C   UNL     1      -2.585  -5.516   6.749  0.00  0.00    +0.000 A 
ATOM      5  C   UNL     1      -1.464  -4.869   6.309  0.00  0.00    +0.000 A 
ATOM      6  C   UNL     1      -1.502  -3.536   5.978  0.00  0.00    +0.000 A 
ENDROOT
BRANCH   5   7
ATOM      7  O   UNL     1      -0.243  -5.584   6.193  0.00  0.00    +0.000 OA
ATOM      8  H   UNL     1       0.581  -5.118   5.872  0.00  0.00    +0.000 HD
ENDBRANCH   5   7
BRANCH   6   9
ATOM      9  O   UNL     1      -0.348  -2.913   5.433  0.00  0.00    +0.000 OA
ATOM     10  H   UNL     1      -0.370  -1.943   5.191  0.00  0.00    +0.000 HD
ENDBRANCH   6   9
BRANCH   1  11
ATOM     11  O   UNL     1      -2.578  -1.418   5.968  0.00  0.00    +0.000 OA
BRANCH  11  15
ATOM     12  C   UNL     1      -1.771   0.147   2.187  0.00  0.00    +0.000 A 
ATOM     13  C   UNL     1      -2.149   1.014   3.198  0.00  0.00    +0.000 A 
ATOM     14  C   UNL     1      -2.186   0.418   4.481  0.00  0.00    +0.000 A 
ATOM     15  C   UNL     1      -2.225  -0.884   4.701  0.00  0.00    +0.000 A 
ATOM     16  C   UNL     1      -1.907  -1.689   3.643  0.00  0.00    +0.000 A 
ATOM     17  C   UNL     1      -1.728  -1.165   2.385  0.00  0.00    +0.000 A 
BRANCH  12  18
ATOM     18  C   UNL     1      -1.264   0.692   0.861  0.00  0.00    +0.000 C 
BRANCH  18  20
ATOM     19  C   UNL     1       0.936  -0.027  -0.072  0.00  0.00    +0.000 C 
ATOM     20  C   UNL     1       0.256   0.692   0.861  0.00  0.00    +0.000 C 
ENDBRANCH  18  20
ENDBRANCH  12  18
ENDBRANCH  11  15
ENDBRANCH   1  11
BRANCH   3  21
ATOM     21  C   UNL     1      -4.774  -5.370   7.803  0.00  0.00    +0.000 C 
BRANCH  21  22
ATOM     22  C   UNL     1      -4.988  -4.549   9.065  0.00  0.00    +0.000 C 
ATOM     23  C   UNL     1      -6.191  -3.958   9.295  0.00  0.00    +0.000 C 
ENDBRANCH  21  22
ENDBRANCH   3  21
TORSDOF 8
