
 OpenBabel03132512083D

 39 40  0  0  0  0  0  0  0  0999 V2000
    0.9357   -0.0272   -0.0716 C   0  0  0  0  0  0  0  0  0  0  0  0
    0.2555    0.6921    0.8614 C   0  0  0  0  0  0  0  0  0  0  0  0
   -1.2645    0.6921    0.8614 C   0  0  0  0  0  0  0  0  0  0  0  0
   -1.7711    0.1468    2.1867 C   0  0  0  0  0  0  0  0  0  0  0  0
   -2.1491    1.0142    3.1982 C   0  0  0  0  0  0  0  0  0  0  0  0
   -2.1858    0.4178    4.4808 C   0  0  0  0  0  0  0  0  0  0  0  0
   -2.2250   -0.8838    4.7008 C   0  0  0  0  0  0  0  0  0  0  0  0
   -2.5779   -1.4181    5.9682 O   0  0  0  0  0  0  0  0  0  0  0  0
   -2.6078   -2.8245    6.1624 C   0  0  0  0  0  0  0  0  0  0  0  0
   -3.7948   -3.4278    6.5440 C   0  0  0  0  0  0  0  0  0  0  0  0
   -3.6422   -4.7619    6.9900 C   0  0  0  0  0  0  0  0  0  0  0  0
   -4.7737   -5.3695    7.8031 C   0  0  0  0  0  0  0  0  0  0  0  0
   -4.9879   -4.5494    9.0649 C   0  0  0  0  0  0  0  0  0  0  0  0
   -6.1909   -3.9575    9.2953 C   0  0  0  0  0  0  0  0  0  0  0  0
   -2.5852   -5.5159    6.7490 C   0  0  0  0  0  0  0  0  0  0  0  0
   -1.4641   -4.8687    6.3090 C   0  0  0  0  0  0  0  0  0  0  0  0
   -0.2431   -5.5844    6.1926 O   0  0  0  0  0  0  0  0  0  0  0  0
   -1.5018   -3.5357    5.9778 C   0  0  0  0  0  0  0  0  0  0  0  0
   -0.3476   -2.9131    5.4332 O   0  0  0  0  0  0  0  0  0  0  0  0
   -1.9074   -1.6891    3.6425 C   0  0  0  0  0  0  0  0  0  0  0  0
   -1.7276   -1.1655    2.3850 C   0  0  0  0  0  0  0  0  0  0  0  0
    0.4007   -0.5930   -0.8055 H   0  0  0  0  0  0  0  0  0  0  0  0
    2.0057   -0.0272   -0.0716 H   0  0  0  0  0  0  0  0  0  0  0  0
    0.7905    1.2579    1.5953 H   0  0  0  0  0  0  0  0  0  0  0  0
   -1.6211    1.6920    0.7274 H   0  0  0  0  0  0  0  0  0  0  0  0
   -1.6211    0.0762    0.0625 H   0  0  0  0  0  0  0  0  0  0  0  0
   -2.3913    2.0420    3.0254 H   0  0  0  0  0  0  0  0  0  0  0  0
   -2.1816    1.0665    5.3317 H   0  0  0  0  0  0  0  0  0  0  0  0
   -4.7412   -2.9301    6.5051 H   0  0  0  0  0  0  0  0  0  0  0  0
   -5.6714   -5.3692    7.2209 H   0  0  0  0  0  0  0  0  0  0  0  0
   -4.5216   -6.3746    8.0695 H   0  0  0  0  0  0  0  0  0  0  0  0
   -4.1925   -4.4378    9.7719 H   0  0  0  0  0  0  0  0  0  0  0  0
   -6.3417   -3.3802   10.1836 H   0  0  0  0  0  0  0  0  0  0  0  0
   -6.9863   -4.0691    8.5884 H   0  0  0  0  0  0  0  0  0  0  0  0
   -2.6050   -6.5764    6.8904 H   0  0  0  0  0  0  0  0  0  0  0  0
    0.5811   -5.1180    5.8715 H   0  0  0  0  0  0  0  0  0  0  0  0
   -0.3701   -1.9432    5.1906 H   0  0  0  0  0  0  0  0  0  0  0  0
   -1.7972   -2.7423    3.7958 H   0  0  0  0  0  0  0  0  0  0  0  0
   -1.5510   -1.8211    1.5580 H   0  0  0  0  0  0  0  0  0  0  0  0
  1  2  2  0  0  0  0
  1 22  1  0  0  0  0
  1 23  1  0  0  0  0
  2  3  1  0  0  0  0
  2 24  1  0  0  0  0
  3  4  1  0  0  0  0
  3 25  1  0  0  0  0
  3 26  1  0  0  0  0
  4  5  1  0  0  0  0
  4 21  2  0  0  0  0
  5  6  2  0  0  0  0
  5 27  1  0  0  0  0
  6  7  1  0  0  0  0
  6 28  1  0  0  0  0
  7  8  1  0  0  0  0
  7 20  2  0  0  0  0
  8  9  1  0  0  0  0
  9 10  1  0  0  0  0
  9 18  2  0  0  0  0
 10 11  2  0  0  0  0
 10 29  1  0  0  0  0
 11 12  1  0  0  0  0
 11 15  1  0  0  0  0
 12 13  1  0  0  0  0
 12 30  1  0  0  0  0
 12 31  1  0  0  0  0
 13 14  2  0  0  0  0
 13 32  1  0  0  0  0
 14 33  1  0  0  0  0
 14 34  1  0  0  0  0
 15 16  2  0  0  0  0
 15 35  1  0  0  0  0
 16 17  1  0  0  0  0
 16 18  1  0  0  0  0
 17 36  1  0  0  0  0
 18 19  1  0  0  0  0
 19 37  1  0  0  0  0
 20 21  1  0  0  0  0
 20 38  1  0  0  0  0
 21 39  1  0  0  0  0
M  END
