
 OpenBabel03132512093D

125131  0  0  0  0  0  0  0  0999 V2000
    1.0768    0.0226    0.0599 C   0  0  0  0  0  0  0  0  0  0  0  0
    0.3966   -0.4490    1.1396 C   0  0  0  0  0  0  0  0  0  0  0  0
    1.1566   -0.9759    2.3459 C   0  0  0  0  0  0  0  0  0  0  0  0
    1.9730   -2.0685    1.9507 O   0  0  0  0  0  0  0  0  0  0  0  0
    2.0305    0.1292    2.9164 C   0  0  0  0  0  0  0  0  0  0  0  0
    1.2705    1.4502    3.0587 O   0  0  0  0  0  0  0  0  0  0  0  0
    2.2087    2.5181    3.6201 C   0  0  0  0  0  0  0  0  0  0  0  0
    1.5169    3.7647    3.7381 C   0  0  0  0  0  0  0  0  0  0  0  0
    2.1809    4.7681    2.9518 C   0  0  0  0  0  0  0  0  0  0  0  0
    2.9463    3.9843    1.8558 C   0  0  0  0  0  0  0  0  0  0  0  0
    4.0881    4.7558    1.2143 C   0  0  0  0  0  0  0  0  0  0  0  0
    4.0985    4.9623   -0.1303 C   0  0  0  0  0  0  0  0  0  0  0  0
    5.2402    5.7338   -0.7719 C   0  0  0  0  0  0  0  0  0  0  0  0
    5.9435    4.8473   -1.7868 C   0  0  0  0  0  0  0  0  0  0  0  0
    4.6894    6.9659   -1.4710 C   0  0  0  0  0  0  0  0  0  0  0  0
    5.8311    7.7374   -2.1126 C   0  0  0  0  0  0  0  0  0  0  0  0
    6.5344    6.8509   -3.1275 C   0  0  0  0  0  0  0  0  0  0  0  0
    6.5953    7.2680   -4.5879 C   0  0  0  0  0  0  0  0  0  0  0  0
    7.1093    5.6842   -2.7287 C   0  0  0  0  0  0  0  0  0  0  0  0
    7.0483    5.2671   -1.2684 C   0  0  0  0  0  0  0  0  0  0  0  0
    5.6009    4.9445   -0.8901 O   0  0  0  0  0  0  0  0  0  0  0  0
    5.1389    3.8416   -1.6730 C   0  0  0  0  0  0  0  0  0  0  0  0
    5.3158    4.2341   -3.1307 C   0  0  0  0  0  0  0  0  0  0  0  0
    4.8132    3.1104   -4.0225 C   0  0  0  0  0  0  0  0  0  0  0  0
    3.3408    2.8597   -3.7403 C   0  0  0  0  0  0  0  0  0  0  0  0
    4.9784    3.4771   -5.3844 O   0  0  0  0  0  0  0  0  0  0  0  0
    5.6061    1.8451   -3.7387 C   0  0  0  0  0  0  0  0  0  0  0  0
    6.5266    1.8552   -2.8624 O   0  0  0  0  0  0  0  0  0  0  0  0
    5.3184    0.6518   -4.4525 O   0  0  0  0  0  0  0  0  0  0  0  0
    5.8812    2.6365   -1.4775 C   0  0  0  0  0  0  0  0  0  0  0  0
    7.3400    2.8658   -1.8796 C   0  0  0  0  0  0  0  0  0  0  0  0
    7.9135    4.0210   -1.0529 C   0  0  0  0  0  0  0  0  0  0  0  0
    9.2472    4.2869   -1.4614 O   0  0  0  0  0  0  0  0  0  0  0  0
    4.0324    7.7941   -0.5229 O   0  0  0  0  0  0  0  0  0  0  0  0
    3.3899    2.7242    2.6500 O   0  0  0  0  0  0  0  0  0  0  0  0
    2.7426    2.0834    4.9844 C   0  0  0  0  0  0  0  0  0  0  0  0
    3.4983    0.7604    4.8374 C   0  0  0  0  0  0  0  0  0  0  0  0
    2.5532   -0.3088    4.2858 C   0  0  0  0  0  0  0  0  0  0  0  0
    3.2538   -1.5369    4.1540 O   0  0  0  0  0  0  0  0  0  0  0  0
   -1.1234   -0.4490    1.1396 C   0  0  0  0  0  0  0  0  0  0  0  0
   -1.6301    0.4015    2.2930 C   0  0  0  0  0  0  0  0  0  0  0  0
   -1.1567    1.7320    2.1436 O   0  0  0  0  0  0  0  0  0  0  0  0
   -3.1501    0.4015    2.2930 C   0  0  0  0  0  0  0  0  0  0  0  0
   -3.6567   -1.0226    2.4528 C   0  0  0  0  0  0  0  0  0  0  0  0
   -3.1501   -1.5962    3.7661 C   0  0  0  0  0  0  0  0  0  0  0  0
   -5.1767   -1.0226    2.4528 C   0  0  0  0  0  0  0  0  0  0  0  0
   -5.6890    0.2534    3.1249 O   0  0  0  0  0  0  0  0  0  0  0  0
   -5.2587    1.3917    2.3753 C   0  0  0  0  0  0  0  0  0  0  0  0
   -5.7422    2.6437    3.0888 C   0  0  0  0  0  0  0  0  0  0  0  0
   -7.2594    2.6220    3.1785 C   0  0  0  0  0  0  0  0  0  0  0  0
   -7.7034    1.3930    3.9549 C   0  0  0  0  0  0  0  0  0  0  0  0
   -7.1137    1.4378    5.3551 C   0  0  0  0  0  0  0  0  0  0  0  0
   -3.8429    1.3183    2.2955 O   0  0  0  0  0  0  0  0  0  0  0  0
   -5.7462    1.4238    1.0327 C   0  0  0  0  0  0  0  0  0  0  0  0
   -5.2362    0.1951    0.2759 C   0  0  0  0  0  0  0  0  0  0  0  0
   -5.6896   -1.0709    1.0098 C   0  0  0  0  0  0  0  0  0  0  0  0
   -5.1319   -2.2983    0.3078 C   0  0  0  0  0  0  0  0  0  0  0  0
    0.5418    0.3935   -0.7892 H   0  0  0  0  0  0  0  0  0  0  0  0
    2.1468    0.0226    0.0599 H   0  0  0  0  0  0  0  0  0  0  0  0
    0.4613   -1.3014    3.0912 H   0  0  0  0  0  0  0  0  0  0  0  0
    1.3981   -2.7955    1.5754 H   0  0  0  0  0  0  0  0  0  0  0  0
    2.8399    0.2960    2.2368 H   0  0  0  0  0  0  0  0  0  0  0  0
    0.5139    3.6462    3.3846 H   0  0  0  0  0  0  0  0  0  0  0  0
    1.5048    4.0683    4.7641 H   0  0  0  0  0  0  0  0  0  0  0  0
    2.8368    5.3713    3.5441 H   0  0  0  0  0  0  0  0  0  0  0  0
    1.4672    5.4314    2.5095 H   0  0  0  0  0  0  0  0  0  0  0  0
    2.3073    3.7280    1.0368 H   0  0  0  0  0  0  0  0  0  0  0  0
    4.8836    5.1364    1.8202 H   0  0  0  0  0  0  0  0  0  0  0  0
    3.3030    4.5817   -0.7362 H   0  0  0  0  0  0  0  0  0  0  0  0
    5.9367    6.0336   -0.0169 H   0  0  0  0  0  0  0  0  0  0  0  0
    5.2470    4.5475   -2.5417 H   0  0  0  0  0  0  0  0  0  0  0  0
    6.7472    5.3904   -2.2384 H   0  0  0  0  0  0  0  0  0  0  0  0
    6.3313    3.9799   -1.2946 H   0  0  0  0  0  0  0  0  0  0  0  0
    3.9929    6.6661   -2.2260 H   0  0  0  0  0  0  0  0  0  0  0  0
    5.4433    8.6047   -2.6048 H   0  0  0  0  0  0  0  0  0  0  0  0
    6.5276    8.0372   -1.3577 H   0  0  0  0  0  0  0  0  0  0  0  0
    7.6175    7.3677   -4.8880 H   0  0  0  0  0  0  0  0  0  0  0  0
    6.1173    6.5248   -5.1913 H   0  0  0  0  0  0  0  0  0  0  0  0
    6.0940    8.2050   -4.7124 H   0  0  0  0  0  0  0  0  0  0  0  0
    7.6043    5.0601   -3.4431 H   0  0  0  0  0  0  0  0  0  0  0  0
    4.1174    3.6523   -1.4171 H   0  0  0  0  0  0  0  0  0  0  0  0
    4.7576    5.1248   -3.3305 H   0  0  0  0  0  0  0  0  0  0  0  0
    6.3523    4.4106   -3.3294 H   0  0  0  0  0  0  0  0  0  0  0  0
    2.7826    3.7504   -3.9401 H   0  0  0  0  0  0  0  0  0  0  0  0
    2.9870    2.0687   -4.3681 H   0  0  0  0  0  0  0  0  0  0  0  0
    3.2163    2.5834   -2.7141 H   0  0  0  0  0  0  0  0  0  0  0  0
    4.4567    4.3095   -5.5711 H   0  0  0  0  0  0  0  0  0  0  0  0
    5.8401   -0.1807   -4.2658 H   0  0  0  0  0  0  0  0  0  0  0  0
    5.4629    1.8579   -2.0806 H   0  0  0  0  0  0  0  0  0  0  0  0
    5.8355    2.3525   -0.4469 H   0  0  0  0  0  0  0  0  0  0  0  0
    7.3929    3.1072   -2.9207 H   0  0  0  0  0  0  0  0  0  0  0  0
    7.9064    1.9771   -1.6942 H   0  0  0  0  0  0  0  0  0  0  0  0
    7.9095    3.7565   -0.0161 H   0  0  0  0  0  0  0  0  0  0  0  0
    9.2560    4.5346   -2.4302 H   0  0  0  0  0  0  0  0  0  0  0  0
    1.9255    1.9544    5.6631 H   0  0  0  0  0  0  0  0  0  0  0  0
    3.4055    2.8328    5.3636 H   0  0  0  0  0  0  0  0  0  0  0  0
    3.8662    0.4520    5.7936 H   0  0  0  0  0  0  0  0  0  0  0  0
    4.3196    0.8919    4.1643 H   0  0  0  0  0  0  0  0  0  0  0  0
    1.7300   -0.4378    4.9571 H   0  0  0  0  0  0  0  0  0  0  0  0
   -1.4801   -0.0452    0.2151 H   0  0  0  0  0  0  0  0  0  0  0  0
   -1.2734   -0.0023    3.2174 H   0  0  0  0  0  0  0  0  0  0  0  0
   -0.1567    1.7320    2.1436 H   0  0  0  0  0  0  0  0  0  0  0  0
   -3.5067    1.0002    3.1049 H   0  0  0  0  0  0  0  0  0  0  0  0
   -3.5067    0.8053    1.3685 H   0  0  0  0  0  0  0  0  0  0  0  0
   -3.3001   -1.6213    1.6409 H   0  0  0  0  0  0  0  0  0  0  0  0
   -3.5068   -0.9975    4.5780 H   0  0  0  0  0  0  0  0  0  0  0  0
   -3.5068   -2.5987    3.8786 H   0  0  0  0  0  0  0  0  0  0  0  0
   -2.0801   -1.5962    3.7661 H   0  0  0  0  0  0  0  0  0  0  0  0
   -5.5295   -1.8786    2.9892 H   0  0  0  0  0  0  0  0  0  0  0  0
   -5.3270    2.6753    4.0745 H   0  0  0  0  0  0  0  0  0  0  0  0
   -5.4295    3.5089    2.5423 H   0  0  0  0  0  0  0  0  0  0  0  0
   -7.5997    3.5033    3.6808 H   0  0  0  0  0  0  0  0  0  0  0  0
   -7.6745    2.5904    2.1928 H   0  0  0  0  0  0  0  0  0  0  0  0
   -8.7715    1.3776    4.0180 H   0  0  0  0  0  0  0  0  0  0  0  0
   -7.3631    0.5116    3.4526 H   0  0  0  0  0  0  0  0  0  0  0  0
   -7.4263    0.5727    5.9017 H   0  0  0  0  0  0  0  0  0  0  0  0
   -6.0457    1.4531    5.2920 H   0  0  0  0  0  0  0  0  0  0  0  0
   -5.3979    2.3117    0.5477 H   0  0  0  0  0  0  0  0  0  0  0  0
   -6.8161    1.4188    1.0414 H   0  0  0  0  0  0  0  0  0  0  0  0
   -4.1676    0.2200    0.2276 H   0  0  0  0  0  0  0  0  0  0  0  0
   -5.6345    0.1954   -0.7172 H   0  0  0  0  0  0  0  0  0  0  0  0
   -6.7584   -1.1216    1.0105 H   0  0  0  0  0  0  0  0  0  0  0  0
   -5.4493   -3.1798    0.8247 H   0  0  0  0  0  0  0  0  0  0  0  0
   -5.4909   -2.3269   -0.6997 H   0  0  0  0  0  0  0  0  0  0  0  0
   -4.0629   -2.2524    0.3044 H   0  0  0  0  0  0  0  0  0  0  0  0
  1  2  2  0  0  0  0
  1 58  1  0  0  0  0
  1 59  1  0  0  0  0
  2  3  1  0  0  0  0
  2 40  1  0  0  0  0
  3  4  1  0  0  0  0
  3  5  1  0  0  0  0
  3 60  1  0  0  0  0
  4 61  1  0  0  0  0
  5  6  1  0  0  0  0
  5 38  1  0  0  0  0
  5 62  1  0  0  0  0
  6  7  1  0  0  0  0
  7  8  1  0  0  0  0
  7 35  1  0  0  0  0
  7 36  1  0  0  0  0
  8  9  1  0  0  0  0
  8 63  1  0  0  0  0
  8 64  1  0  0  0  0
  9 10  1  0  0  0  0
  9 65  1  0  0  0  0
  9 66  1  0  0  0  0
 10 11  1  0  0  0  0
 10 35  1  0  0  0  0
 10 67  1  0  0  0  0
 11 12  2  0  0  0  0
 11 68  1  0  0  0  0
 12 13  1  0  0  0  0
 12 69  1  0  0  0  0
 13 14  1  0  0  0  0
 13 15  1  0  0  0  0
 13 70  1  0  0  0  0
 14 71  1  0  0  0  0
 14 72  1  0  0  0  0
 14 73  1  0  0  0  0
 15 16  1  0  0  0  0
 15 34  1  0  0  0  0
 15 74  1  0  0  0  0
 16 17  1  0  0  0  0
 16 75  1  0  0  0  0
 16 76  1  0  0  0  0
 17 18  1  0  0  0  0
 17 19  2  0  0  0  0
 18 77  1  0  0  0  0
 18 78  1  0  0  0  0
 18 79  1  0  0  0  0
 19 20  1  0  0  0  0
 19 80  1  0  0  0  0
 20 21  1  0  0  0  0
 20 32  1  0  0  0  0
 20 34  1  0  0  0  0
 21 22  1  0  0  0  0
 22 23  1  0  0  0  0
 22 30  1  0  0  0  0
 22 81  1  0  0  0  0
 23 24  1  0  0  0  0
 23 82  1  0  0  0  0
 23 83  1  0  0  0  0
 24 25  1  0  0  0  0
 24 26  1  0  0  0  0
 24 27  1  0  0  0  0
 25 84  1  0  0  0  0
 25 85  1  0  0  0  0
 25 86  1  0  0  0  0
 26 87  1  0  0  0  0
 27 28  2  0  0  0  0
 27 29  1  0  0  0  0
 29 88  1  0  0  0  0
 30 31  1  0  0  0  0
 30 89  1  0  0  0  0
 30 90  1  0  0  0  0
 31 32  1  0  0  0  0
 31 91  1  0  0  0  0
 31 92  1  0  0  0  0
 32 33  1  0  0  0  0
 32 93  1  0  0  0  0
 33 94  1  0  0  0  0
 36 37  1  0  0  0  0
 36 95  1  0  0  0  0
 36 96  1  0  0  0  0
 37 38  1  0  0  0  0
 37 97  1  0  0  0  0
 37 98  1  0  0  0  0
 38 39  1  0  0  0  0
 38 99  1  0  0  0  0
 39 40  1  0  0  0  0
 40 41  1  0  0  0  0
 40100  1  0  0  0  0
 41 42  1  0  0  0  0
 41 43  1  0  0  0  0
 41101  1  0  0  0  0
 42102  1  0  0  0  0
 43 44  1  0  0  0  0
 43103  1  0  0  0  0
 43104  1  0  0  0  0
 44 45  1  0  0  0  0
 44 46  1  0  0  0  0
 44105  1  0  0  0  0
 45106  1  0  0  0  0
 45107  1  0  0  0  0
 45108  1  0  0  0  0
 46 47  1  0  0  0  0
 46 56  1  0  0  0  0
 46109  1  0  0  0  0
 47 48  1  0  0  0  0
 48 49  1  0  0  0  0
 48 53  1  0  0  0  0
 48 54  1  0  0  0  0
 49 50  1  0  0  0  0
 49110  1  0  0  0  0
 49111  1  0  0  0  0
 50 51  1  0  0  0  0
 50112  1  0  0  0  0
 50113  1  0  0  0  0
 51 52  1  0  0  0  0
 51114  1  0  0  0  0
 51115  1  0  0  0  0
 52 53  1  0  0  0  0
 52116  1  0  0  0  0
 52117  1  0  0  0  0
 54 55  1  0  0  0  0
 54118  1  0  0  0  0
 54119  1  0  0  0  0
 55 56  1  0  0  0  0
 55120  1  0  0  0  0
 55121  1  0  0  0  0
 56 57  1  0  0  0  0
 56122  1  0  0  0  0
 57123  1  0  0  0  0
 57124  1  0  0  0  0
 57125  1  0  0  0  0
M  END
