REMARK  Name = 
REMARK  20 active torsions:
REMARK  status: ('A' for Active; 'I' for Inactive)
REMARK    1  A    between atoms: C_3  and  O_4
REMARK    2  A    between atoms: C_10  and  C_11
REMARK    3  A    between atoms: C_12  and  C_13
REMARK    4  A    between atoms: C_13  and  C_14
REMARK    5  A    between atoms: C_13  and  C_15
REMARK    6  A    between atoms: C_17  and  C_18
REMARK    7  A    between atoms: C_22  and  C_23
REMARK    8  A    between atoms: C_23  and  C_24
REMARK    9  A    between atoms: C_24  and  C_25
REMARK   10  A    between atoms: C_24  and  O_26
REMARK   11  A    between atoms: C_24  and  C_27
REMARK   12  A    between atoms: C_27  and  O_29
REMARK   13  A    between atoms: C_32  and  O_33
REMARK   14  A    between atoms: C_40  and  C_41
REMARK   15  A    between atoms: C_41  and  O_42
REMARK   16  A    between atoms: C_41  and  C_43
REMARK   17  A    between atoms: C_43  and  C_44
REMARK   18  A    between atoms: C_44  and  C_45
REMARK   19  A    between atoms: C_44  and  C_46
REMARK   20  A    between atoms: C_56  and  C_57
REMARK                            x       y       z     vdW  Elec       q    Type
REMARK                         _______ _______ _______ _____ _____    ______ ____
ROOT
ATOM      1  C   UNL     1       1.066  -0.073  -0.017  0.00  0.00    +0.000 C 
ATOM      2  C   UNL     1       0.386   0.973  -0.560  0.00  0.00    +0.000 C 
ATOM      3  C   UNL     1       1.146   2.142  -1.166  0.00  0.00    +0.000 C 
ATOM      4  C   UNL     1       2.020   1.641  -2.305  0.00  0.00    +0.000 C 
ATOM      5  O   UNL     1       3.506   1.765  -1.958  0.00  0.00    +0.000 OA
ATOM      6  C   UNL     1       4.345   1.243  -3.124  0.00  0.00    +0.000 C 
ATOM      7  C   UNL     1       5.737   1.372  -2.822  0.00  0.00    +0.000 C 
ATOM      8  C   UNL     1       6.375   2.200  -3.808  0.00  0.00    +0.000 C 
ATOM      9  C   UNL     1       5.244   3.086  -4.389  0.00  0.00    +0.000 C 
ATOM     10  O   UNL     1       4.054   2.086  -4.382  0.00  0.00    +0.000 OA
ATOM     11  C   UNL     1       4.002  -0.220  -3.404  0.00  0.00    +0.000 C 
ATOM     12  C   UNL     1       2.515  -0.338  -3.746  0.00  0.00    +0.000 C 
ATOM     13  C   UNL     1       1.679   0.174  -2.572  0.00  0.00    +0.000 C 
ATOM     14  O   UNL     1       0.299   0.060  -2.889  0.00  0.00    +0.000 OA
ATOM     15  C   UNL     1      -1.134   0.973  -0.560  0.00  0.00    +0.000 C 
ENDROOT
BRANCH   3  16
ATOM     16  O   UNL     1       1.963   2.742  -0.171  0.00  0.00    +0.000 OA
ATOM     17  H   UNL     1       1.388   3.071   0.578  0.00  0.00    +0.000 HD
ENDBRANCH   3  16
BRANCH   9  18
ATOM     18  C   UNL     1       5.553   3.685  -5.751  0.00  0.00    +0.000 C 
ATOM     19  C   UNL     1       5.530   5.035  -5.922  0.00  0.00    +0.000 C 
BRANCH  19  20
ATOM     20  C   UNL     1       5.839   5.634  -7.284  0.00  0.00    +0.000 C 
ATOM     21  C   UNL     1       4.641   6.434  -7.769  0.00  0.00    +0.000 C 
BRANCH  20  22
ATOM     22  C   UNL     1       7.047   6.549  -7.173  0.00  0.00    +0.000 C 
ATOM     23  C   UNL     1       7.356   7.148  -8.535  0.00  0.00    +0.000 C 
ATOM     24  C   UNL     1       6.158   7.948  -9.020  0.00  0.00    +0.000 C 
ATOM     25  C   UNL     1       6.302   9.433  -9.309  0.00  0.00    +0.000 C 
ATOM     26  C   UNL     1       4.956   7.334  -9.196  0.00  0.00    +0.000 C 
ATOM     27  C   UNL     1       4.812   5.849  -8.907  0.00  0.00    +0.000 C 
ATOM     28  O   UNL     1       3.320   5.962  -9.225  0.00  0.00    +0.000 OA
ATOM     29  C   UNL     1       3.150   6.268 -10.611  0.00  0.00    +0.000 C 
ATOM     30  C   UNL     1       3.674   5.275 -11.495  0.00  0.00    +0.000 C 
ATOM     31  C   UNL     1       5.181   5.135 -11.269  0.00  0.00    +0.000 C 
ATOM     32  C   UNL     1       5.437   4.774  -9.802  0.00  0.00    +0.000 C 
ATOM     33  O   UNL     1       8.167   5.802  -6.720  0.00  0.00    +0.000 OA
BRANCH  32  34
ATOM     34  O   UNL     1       6.835   4.704  -9.563  0.00  0.00    +0.000 OA
ATOM     35  H   UNL     1       7.253   5.589  -9.765  0.00  0.00    +0.000 HD
ENDBRANCH  32  34
BRANCH  29  36
ATOM     36  C   UNL     1       3.929   7.546 -10.876  0.00  0.00    +0.000 C 
BRANCH  36  37
ATOM     37  C   UNL     1       3.766   7.946 -12.334  0.00  0.00    +0.000 C 
ATOM     38  C   UNL     1       2.294   8.178 -12.633  0.00  0.00    +0.000 C 
BRANCH  37  39
ATOM     39  O   UNL     1       4.494   9.139 -12.581  0.00  0.00    +0.000 OA
ATOM     40  H   UNL     1       4.145   9.870 -11.994  0.00  0.00    +0.000 HD
ENDBRANCH  37  39
BRANCH  37  41
ATOM     41  C   UNL     1       4.296   6.835 -13.226  0.00  0.00    +0.000 C 
ATOM     42  O   UNL     1       4.779   5.779 -12.708  0.00  0.00    +0.000 OA
BRANCH  41  43
ATOM     43  O   UNL     1       4.252   6.977 -14.638  0.00  0.00    +0.000 OA
ATOM     44  H   UNL     1       4.601   6.246 -15.225  0.00  0.00    +0.000 HD
ENDBRANCH  41  43
ENDBRANCH  37  41
ENDBRANCH  36  37
ENDBRANCH  29  36
ENDBRANCH  20  22
ENDBRANCH  19  20
ENDBRANCH   9  18
BRANCH  15  45
ATOM     45  C   UNL     1      -1.640   1.038  -1.991  0.00  0.00    +0.000 C 
BRANCH  45  46
ATOM     46  O   UNL     1      -1.167  -0.091  -2.712  0.00  0.00    +0.000 OA
ATOM     47  H   UNL     1      -0.167  -0.091  -2.712  0.00  0.00    +0.000 HD
ENDBRANCH  45  46
BRANCH  45  48
ATOM     48  C   UNL     1      -3.160   1.038  -1.991  0.00  0.00    +0.000 C 
BRANCH  48  49
ATOM     49  C   UNL     1      -3.667   2.245  -1.220  0.00  0.00    +0.000 C 
ATOM     50  C   UNL     1      -3.160   3.517  -1.880  0.00  0.00    +0.000 C 
BRANCH  49  51
ATOM     51  C   UNL     1      -5.187   2.245  -1.220  0.00  0.00    +0.000 C 
ATOM     52  O   UNL     1      -5.699   3.106  -0.063  0.00  0.00    +0.000 OA
ATOM     53  C   UNL     1      -5.269   4.457  -0.248  0.00  0.00    +0.000 C 
ATOM     54  C   UNL     1      -5.753   5.278   0.936  0.00  0.00    +0.000 C 
ATOM     55  C   UNL     1      -7.270   5.220   1.007  0.00  0.00    +0.000 C 
ATOM     56  C   UNL     1      -7.714   3.776   1.177  0.00  0.00    +0.000 C 
ATOM     57  C   UNL     1      -7.124   3.213   2.460  0.00  0.00    +0.000 C 
ATOM     58  O   UNL     1      -3.853   4.425  -0.352  0.00  0.00    +0.000 OA
ATOM     59  C   UNL     1      -5.757   5.065  -1.446  0.00  0.00    +0.000 C 
ATOM     60  C   UNL     1      -5.247   4.283  -2.658  0.00  0.00    +0.000 C 
ATOM     61  C   UNL     1      -5.700   2.824  -2.542  0.00  0.00    +0.000 C 
ATOM     62  C   UNL     1      -5.142   2.019  -3.705  0.00  0.00    +0.000 C 
ENDBRANCH  49  51
ENDBRANCH  48  49
ENDBRANCH  45  48
ENDBRANCH  15  45
TORSDOF 15
