REMARK  Name = 
REMARK  20 active torsions:
REMARK  status: ('A' for Active; 'I' for Inactive)
REMARK    1  A    between atoms: C_3  and  O_4
REMARK    2  A    between atoms: C_10  and  C_11
REMARK    3  A    between atoms: C_12  and  C_13
REMARK    4  A    between atoms: C_13  and  C_14
REMARK    5  A    between atoms: C_13  and  C_15
REMARK    6  A    between atoms: C_17  and  C_18
REMARK    7  A    between atoms: C_22  and  C_23
REMARK    8  A    between atoms: C_23  and  C_24
REMARK    9  A    between atoms: C_24  and  C_25
REMARK   10  A    between atoms: C_24  and  O_26
REMARK   11  A    between atoms: C_24  and  C_27
REMARK   12  A    between atoms: C_27  and  O_29
REMARK   13  A    between atoms: C_32  and  O_33
REMARK   14  A    between atoms: C_40  and  C_41
REMARK   15  A    between atoms: C_41  and  O_42
REMARK   16  A    between atoms: C_41  and  C_43
REMARK   17  A    between atoms: C_43  and  C_44
REMARK   18  A    between atoms: C_44  and  C_45
REMARK   19  A    between atoms: C_44  and  C_46
REMARK   20  A    between atoms: C_56  and  C_57
REMARK                            x       y       z     vdW  Elec       q    Type
REMARK                         _______ _______ _______ _____ _____    ______ ____
ROOT
ATOM      1  C   UNL     1       1.077   0.023   0.060  0.00  0.00    +0.000 C 
ATOM      2  C   UNL     1       0.397  -0.449   1.140  0.00  0.00    +0.000 C 
ATOM      3  C   UNL     1       1.157  -0.976   2.346  0.00  0.00    +0.000 C 
ATOM      4  C   UNL     1       2.030   0.129   2.916  0.00  0.00    +0.000 C 
ATOM      5  O   UNL     1       1.270   1.450   3.059  0.00  0.00    +0.000 OA
ATOM      6  C   UNL     1       2.209   2.518   3.620  0.00  0.00    +0.000 C 
ATOM      7  C   UNL     1       1.517   3.765   3.738  0.00  0.00    +0.000 C 
ATOM      8  C   UNL     1       2.181   4.768   2.952  0.00  0.00    +0.000 C 
ATOM      9  C   UNL     1       2.946   3.984   1.856  0.00  0.00    +0.000 C 
ATOM     10  O   UNL     1       3.390   2.724   2.650  0.00  0.00    +0.000 OA
ATOM     11  C   UNL     1       2.743   2.083   4.984  0.00  0.00    +0.000 C 
ATOM     12  C   UNL     1       3.498   0.760   4.837  0.00  0.00    +0.000 C 
ATOM     13  C   UNL     1       2.553  -0.309   4.286  0.00  0.00    +0.000 C 
ATOM     14  O   UNL     1       3.254  -1.537   4.154  0.00  0.00    +0.000 OA
ATOM     15  C   UNL     1      -1.123  -0.449   1.140  0.00  0.00    +0.000 C 
ENDROOT
BRANCH   3  16
ATOM     16  O   UNL     1       1.973  -2.068   1.951  0.00  0.00    +0.000 OA
ATOM     17  H   UNL     1       1.398  -2.796   1.575  0.00  0.00    +0.000 HD
ENDBRANCH   3  16
BRANCH   9  18
ATOM     18  C   UNL     1       4.088   4.756   1.214  0.00  0.00    +0.000 C 
ATOM     19  C   UNL     1       4.098   4.962  -0.130  0.00  0.00    +0.000 C 
BRANCH  19  20
ATOM     20  C   UNL     1       5.240   5.734  -0.772  0.00  0.00    +0.000 C 
ATOM     21  C   UNL     1       5.944   4.847  -1.787  0.00  0.00    +0.000 C 
BRANCH  20  22
ATOM     22  C   UNL     1       4.689   6.966  -1.471  0.00  0.00    +0.000 C 
ATOM     23  C   UNL     1       5.831   7.737  -2.113  0.00  0.00    +0.000 C 
ATOM     24  C   UNL     1       6.534   6.851  -3.127  0.00  0.00    +0.000 C 
ATOM     25  C   UNL     1       6.595   7.268  -4.588  0.00  0.00    +0.000 C 
ATOM     26  C   UNL     1       7.109   5.684  -2.729  0.00  0.00    +0.000 C 
ATOM     27  C   UNL     1       7.048   5.267  -1.268  0.00  0.00    +0.000 C 
ATOM     28  O   UNL     1       5.601   4.944  -0.890  0.00  0.00    +0.000 OA
ATOM     29  C   UNL     1       5.139   3.842  -1.673  0.00  0.00    +0.000 C 
ATOM     30  C   UNL     1       5.881   2.636  -1.478  0.00  0.00    +0.000 C 
ATOM     31  C   UNL     1       7.340   2.866  -1.880  0.00  0.00    +0.000 C 
ATOM     32  C   UNL     1       7.913   4.021  -1.053  0.00  0.00    +0.000 C 
ATOM     33  O   UNL     1       4.032   7.794  -0.523  0.00  0.00    +0.000 OA
BRANCH  32  34
ATOM     34  O   UNL     1       9.247   4.287  -1.461  0.00  0.00    +0.000 OA
ATOM     35  H   UNL     1       9.256   4.535  -2.430  0.00  0.00    +0.000 HD
ENDBRANCH  32  34
BRANCH  29  36
ATOM     36  C   UNL     1       5.316   4.234  -3.131  0.00  0.00    +0.000 C 
BRANCH  36  37
ATOM     37  C   UNL     1       4.813   3.110  -4.022  0.00  0.00    +0.000 C 
ATOM     38  C   UNL     1       3.341   2.860  -3.740  0.00  0.00    +0.000 C 
BRANCH  37  39
ATOM     39  O   UNL     1       4.978   3.477  -5.384  0.00  0.00    +0.000 OA
ATOM     40  H   UNL     1       4.457   4.309  -5.571  0.00  0.00    +0.000 HD
ENDBRANCH  37  39
BRANCH  37  41
ATOM     41  C   UNL     1       5.606   1.845  -3.739  0.00  0.00    +0.000 C 
ATOM     42  O   UNL     1       6.527   1.855  -2.862  0.00  0.00    +0.000 OA
BRANCH  41  43
ATOM     43  O   UNL     1       5.318   0.652  -4.452  0.00  0.00    +0.000 OA
ATOM     44  H   UNL     1       5.840  -0.181  -4.266  0.00  0.00    +0.000 HD
ENDBRANCH  41  43
ENDBRANCH  37  41
ENDBRANCH  36  37
ENDBRANCH  29  36
ENDBRANCH  20  22
ENDBRANCH  19  20
ENDBRANCH   9  18
BRANCH  15  45
ATOM     45  C   UNL     1      -1.630   0.402   2.293  0.00  0.00    +0.000 C 
BRANCH  45  46
ATOM     46  O   UNL     1      -1.157   1.732   2.144  0.00  0.00    +0.000 OA
ATOM     47  H   UNL     1      -0.157   1.732   2.144  0.00  0.00    +0.000 HD
ENDBRANCH  45  46
BRANCH  45  48
ATOM     48  C   UNL     1      -3.150   0.402   2.293  0.00  0.00    +0.000 C 
BRANCH  48  49
ATOM     49  C   UNL     1      -3.657  -1.023   2.453  0.00  0.00    +0.000 C 
ATOM     50  C   UNL     1      -3.150  -1.596   3.766  0.00  0.00    +0.000 C 
BRANCH  49  51
ATOM     51  C   UNL     1      -5.177  -1.023   2.453  0.00  0.00    +0.000 C 
ATOM     52  O   UNL     1      -5.689   0.253   3.125  0.00  0.00    +0.000 OA
ATOM     53  C   UNL     1      -5.259   1.392   2.375  0.00  0.00    +0.000 C 
ATOM     54  C   UNL     1      -5.742   2.644   3.089  0.00  0.00    +0.000 C 
ATOM     55  C   UNL     1      -7.259   2.622   3.179  0.00  0.00    +0.000 C 
ATOM     56  C   UNL     1      -7.703   1.393   3.955  0.00  0.00    +0.000 C 
ATOM     57  C   UNL     1      -7.114   1.438   5.355  0.00  0.00    +0.000 C 
ATOM     58  O   UNL     1      -3.843   1.318   2.296  0.00  0.00    +0.000 OA
ATOM     59  C   UNL     1      -5.746   1.424   1.033  0.00  0.00    +0.000 C 
ATOM     60  C   UNL     1      -5.236   0.195   0.276  0.00  0.00    +0.000 C 
ATOM     61  C   UNL     1      -5.690  -1.071   1.010  0.00  0.00    +0.000 C 
ATOM     62  C   UNL     1      -5.132  -2.298   0.308  0.00  0.00    +0.000 C 
ENDBRANCH  49  51
ENDBRANCH  48  49
ENDBRANCH  45  48
ENDBRANCH  15  45
TORSDOF 15
