REMARK  Name = 
REMARK  10 active torsions:
REMARK  status: ('A' for Active; 'I' for Inactive)
REMARK    1  A    between atoms: C_1  and  C_2
REMARK    2  A    between atoms: C_2  and  C_3
REMARK    3  A    between atoms: C_6  and  C_7
REMARK    4  A    between atoms: C_7  and  O_9
REMARK    5  A    between atoms: C_12  and  C_13
REMARK    6  A    between atoms: C_18  and  C_19
REMARK    7  A    between atoms: C_22  and  O_23
REMARK    8  A    between atoms: C_24  and  C_25
REMARK    9  A    between atoms: C_24  and  C_26
REMARK   10  A    between atoms: C_30  and  C_31
REMARK                            x       y       z     vdW  Elec       q    Type
REMARK                         _______ _______ _______ _____ _____    ______ ____
ROOT
ATOM      1  C   UNL     1       0.945  -0.043   0.072  0.00  0.00    +0.000 C 
ATOM      2  C   UNL     1       0.438   0.894   1.157  0.00  0.00    +0.000 C 
ATOM      3  C   UNL     1      -1.004   1.336   0.975  0.00  0.00    +0.000 C 
ATOM      4  C   UNL     1       0.557   0.209   2.433  0.00  0.00    +0.000 C 
ATOM      5  C   UNL     1      -0.584  -0.191   3.018  0.00  0.00    +0.000 C 
ATOM      6  C   UNL     1      -0.540  -0.906   4.343  0.00  0.00    +0.000 C 
ATOM      7  C   UNL     1      -1.591  -0.307   5.280  0.00  0.00    +0.000 C 
ATOM      8  C   UNL     1      -0.920   0.688   6.225  0.00  0.00    +0.000 C 
ATOM      9  C   UNL     1      -1.432   2.099   5.927  0.00  0.00    +0.000 C 
ATOM     10  C   UNL     1      -2.897   1.978   6.315  0.00  0.00    +0.000 C 
ATOM     11  C   UNL     1       1.110   3.927   2.661  0.00  0.00    +0.000 C 
ATOM     12  C   UNL     1       0.163   4.606   3.259  0.00  0.00    +0.000 C 
ATOM     13  C   UNL     1       0.353   5.076   4.678  0.00  0.00    +0.000 C 
ATOM     14  C   UNL     1      -0.737   4.471   5.566  0.00  0.00    +0.000 C 
ATOM     15  C   UNL     1      -2.019   4.319   4.764  0.00  0.00    +0.000 C 
ATOM     16  C   UNL     1      -2.460   5.689   4.274  0.00  0.00    +0.000 C 
ATOM     17  C   UNL     1      -1.773   3.399   3.565  0.00  0.00    +0.000 C 
ATOM     18  C   UNL     1      -1.413   2.097   4.031  0.00  0.00    +0.000 C 
ATOM     19  C   UNL     1      -2.420   1.462   4.822  0.00  0.00    +0.000 C 
ATOM     20  C   UNL     1      -2.692   2.304   6.071  0.00  0.00    +0.000 C 
ATOM     21  C   UNL     1      -1.433   2.383   6.919  0.00  0.00    +0.000 C 
ATOM     22  C   UNL     1      -3.804   1.662   6.885  0.00  0.00    +0.000 C 
ATOM     23  C   UNL     1      -3.116   3.713   5.645  0.00  0.00    +0.000 C 
ATOM     24  C   UNL     1      -3.323   4.580   6.876  0.00  0.00    +0.000 C 
ATOM     25  C   UNL     1       0.902   2.625   5.240  0.00  0.00    +0.000 C 
ATOM     26  C   UNL     1      -0.283   3.098   6.066  0.00  0.00    +0.000 C 
ATOM     27  C   UNL     1       0.127   3.201   7.526  0.00  0.00    +0.000 C 
ATOM     28  C   UNL     1       0.920   3.458   1.242  0.00  0.00    +0.000 C 
ATOM     29  C   UNL     1       1.415   2.040   1.111  0.00  0.00    +0.000 C 
ENDROOT
BRANCH   6  30
ATOM     30  C   UNL     1      -0.178  -2.226   5.003  0.00  0.00    +0.000 C 
ATOM     31  O   UNL     1       0.271  -3.186   4.301  0.00  0.00    +0.000 OA
BRANCH  30  32
ATOM     32  O   UNL     1      -0.342  -2.387   6.405  0.00  0.00    +0.000 OA
ATOM     33  H   UNL     1      -0.104  -3.256   6.839  0.00  0.00    +0.000 HD
ENDBRANCH  30  32
ENDBRANCH   6  30
BRANCH  19  34
ATOM     34  O   UNL     1      -1.973   0.171   5.209  0.00  0.00    +0.000 OA
ATOM     35  H   UNL     1      -1.133   0.255   5.745  0.00  0.00    +0.000 HD
ENDBRANCH  19  34
TORSDOF 3
