REMARK  Name = 
REMARK  10 active torsions:
REMARK  status: ('A' for Active; 'I' for Inactive)
REMARK    1  A    between atoms: C_1  and  C_2
REMARK    2  A    between atoms: C_2  and  C_3
REMARK    3  A    between atoms: C_6  and  C_7
REMARK    4  A    between atoms: C_7  and  O_9
REMARK    5  A    between atoms: C_12  and  C_13
REMARK    6  A    between atoms: C_18  and  C_19
REMARK    7  A    between atoms: C_22  and  O_23
REMARK    8  A    between atoms: C_24  and  C_25
REMARK    9  A    between atoms: C_24  and  C_26
REMARK   10  A    between atoms: C_30  and  C_31
REMARK                            x       y       z     vdW  Elec       q    Type
REMARK                         _______ _______ _______ _____ _____    ______ ____
ROOT
ATOM      1  C   UNL     1       1.062   0.054  -0.057  0.00  0.00    +0.000 C 
ATOM      2  C   UNL     1       0.555  -0.071   1.370  0.00  0.00    +0.000 C 
ATOM      3  C   UNL     1      -0.958  -0.223   1.368  0.00  0.00    +0.000 C 
ATOM      4  C   UNL     1       1.162  -1.237   1.991  0.00  0.00    +0.000 C 
ATOM      5  C   UNL     1       0.410  -2.346   2.067  0.00  0.00    +0.000 C 
ATOM      6  C   UNL     1       0.971  -3.594   2.699  0.00  0.00    +0.000 C 
ATOM      7  C   UNL     1      -0.061  -4.187   3.660  0.00  0.00    +0.000 C 
ATOM      8  C   UNL     1       0.277  -3.768   5.090  0.00  0.00    +0.000 C 
ATOM      9  C   UNL     1      -0.822  -2.849   5.624  0.00  0.00    +0.000 C 
ATOM     10  C   UNL     1      -2.013  -3.793   5.667  0.00  0.00    +0.000 C 
ATOM     11  C   UNL     1       0.130   1.418   4.455  0.00  0.00    +0.000 C 
ATOM     12  C   UNL     1      -0.901   1.123   5.209  0.00  0.00    +0.000 C 
ATOM     13  C   UNL     1      -0.691   0.696   6.639  0.00  0.00    +0.000 C 
ATOM     14  C   UNL     1      -1.260  -0.711   6.840  0.00  0.00    +0.000 C 
ATOM     15  C   UNL     1      -2.474  -0.900   5.944  0.00  0.00    +0.000 C 
ATOM     16  C   UNL     1      -3.524   0.135   6.315  0.00  0.00    +0.000 C 
ATOM     17  C   UNL     1      -2.070  -0.720   4.479  0.00  0.00    +0.000 C 
ATOM     18  C   UNL     1      -1.126  -1.730   4.118  0.00  0.00    +0.000 C 
ATOM     19  C   UNL     1      -1.626  -3.064   4.235  0.00  0.00    +0.000 C 
ATOM     20  C   UNL     1      -2.011  -3.338   5.690  0.00  0.00    +0.000 C 
ATOM     21  C   UNL     1      -0.778  -3.239   6.574  0.00  0.00    +0.000 C 
ATOM     22  C   UNL     1      -2.599  -4.735   5.806  0.00  0.00    +0.000 C 
ATOM     23  C   UNL     1      -3.051  -2.306   6.138  0.00  0.00    +0.000 C 
ATOM     24  C   UNL     1      -3.393  -2.524   7.603  0.00  0.00    +0.000 C 
ATOM     25  C   UNL     1       0.923  -1.075   5.700  0.00  0.00    +0.000 C 
ATOM     26  C   UNL     1      -0.194  -1.747   6.480  0.00  0.00    +0.000 C 
ATOM     27  C   UNL     1       0.372  -2.355   7.753  0.00  0.00    +0.000 C 
ATOM     28  C   UNL     1      -0.080   1.845   3.026  0.00  0.00    +0.000 C 
ATOM     29  C   UNL     1       0.936   1.164   2.144  0.00  0.00    +0.000 C 
ENDROOT
BRANCH   6  30
ATOM     30  C   UNL     1       1.960  -4.729   2.485  0.00  0.00    +0.000 C 
ATOM     31  O   UNL     1       2.646  -4.781   1.417  0.00  0.00    +0.000 OA
BRANCH  30  32
ATOM     32  O   UNL     1       2.116  -5.731   3.479  0.00  0.00    +0.000 OA
ATOM     33  H   UNL     1       2.766  -6.478   3.339  0.00  0.00    +0.000 HD
ENDBRANCH  30  32
ENDBRANCH   6  30
BRANCH  19  34
ATOM     34  O   UNL     1      -0.622  -3.983   3.829  0.00  0.00    +0.000 OA
ATOM     35  H   UNL     1       0.183  -3.876   4.413  0.00  0.00    +0.000 HD
ENDBRANCH  19  34
TORSDOF 3
