
 OpenBabel03132514253D

 54 53  0  0  0  0  0  0  0  0999 V2000
    1.0855    0.0076   -0.0512 C   0  0  0  0  0  0  0  0  0  0  0  0
    0.5789    0.3572   -1.4410 C   0  0  0  0  0  0  0  0  0  0  0  0
    1.0855   -0.6716   -2.4387 C   0  0  0  0  0  0  0  0  0  0  0  0
    0.5789   -2.0500   -2.0466 C   0  0  0  0  0  0  0  0  0  0  0  0
   -0.9411   -2.0500   -2.0466 C   0  0  0  0  0  0  0  0  0  0  0  0
   -1.4478   -1.7003   -3.4364 C   0  0  0  0  0  0  0  0  0  0  0  0
   -0.9411   -2.7291   -4.4340 C   0  0  0  0  0  0  0  0  0  0  0  0
   -1.4478   -4.1075   -4.0419 C   0  0  0  0  0  0  0  0  0  0  0  0
   -2.9678   -4.1075   -4.0419 C   0  0  0  0  0  0  0  0  0  0  0  0
   -3.6480   -4.9532   -4.8621 C   0  0  0  0  0  0  0  0  0  0  0  0
   -5.1680   -4.9532   -4.8621 C   0  0  0  0  0  0  0  0  0  0  0  0
   -5.6747   -4.6036   -6.2519 C   0  0  0  0  0  0  0  0  0  0  0  0
   -5.1680   -5.6324   -7.2496 C   0  0  0  0  0  0  0  0  0  0  0  0
   -5.6747   -7.0107   -6.8575 C   0  0  0  0  0  0  0  0  0  0  0  0
   -7.1947   -7.0107   -6.8575 C   0  0  0  0  0  0  0  0  0  0  0  0
   -7.7014   -6.6611   -8.2472 C   0  0  0  0  0  0  0  0  0  0  0  0
   -7.1947   -7.6899   -9.2449 C   0  0  0  0  0  0  0  0  0  0  0  0
   -7.7014   -9.0683   -8.8528 C   0  0  0  0  0  0  0  0  0  0  0  0
   -8.4320   -9.7289   -9.6559 O   0  0  0  0  0  0  0  0  0  0  0  0
   -7.3583   -9.6179   -7.5892 O   0  0  0  0  0  0  0  0  0  0  0  0
    0.7289   -0.9628    0.2248 H   0  0  0  0  0  0  0  0  0  0  0  0
    0.7289    0.7317    0.6511 H   0  0  0  0  0  0  0  0  0  0  0  0
    2.1555    0.0076   -0.0512 H   0  0  0  0  0  0  0  0  0  0  0  0
   -0.4911    0.3572   -1.4410 H   0  0  0  0  0  0  0  0  0  0  0  0
    0.9355    1.3275   -1.7170 H   0  0  0  0  0  0  0  0  0  0  0  0
    0.7289   -0.4254   -3.4170 H   0  0  0  0  0  0  0  0  0  0  0  0
    2.1555   -0.6716   -2.4387 H   0  0  0  0  0  0  0  0  0  0  0  0
    0.9355   -2.7741   -2.7489 H   0  0  0  0  0  0  0  0  0  0  0  0
    0.9355   -2.2961   -1.0683 H   0  0  0  0  0  0  0  0  0  0  0  0
   -1.2978   -3.0203   -1.7706 H   0  0  0  0  0  0  0  0  0  0  0  0
   -1.2978   -1.3258   -1.3443 H   0  0  0  0  0  0  0  0  0  0  0  0
   -2.5178   -1.7003   -3.4364 H   0  0  0  0  0  0  0  0  0  0  0  0
   -1.0911   -0.7300   -3.7124 H   0  0  0  0  0  0  0  0  0  0  0  0
   -1.2978   -2.4830   -5.4123 H   0  0  0  0  0  0  0  0  0  0  0  0
    0.1289   -2.7291   -4.4340 H   0  0  0  0  0  0  0  0  0  0  0  0
   -1.0912   -4.8317   -4.7442 H   0  0  0  0  0  0  0  0  0  0  0  0
   -1.0912   -4.3536   -3.0636 H   0  0  0  0  0  0  0  0  0  0  0  0
   -3.5028   -3.4423   -3.3968 H   0  0  0  0  0  0  0  0  0  0  0  0
   -3.1130   -5.6184   -5.5072 H   0  0  0  0  0  0  0  0  0  0  0  0
   -5.5247   -5.9235   -4.5861 H   0  0  0  0  0  0  0  0  0  0  0  0
   -5.5247   -4.2290   -4.1598 H   0  0  0  0  0  0  0  0  0  0  0  0
   -6.7447   -4.6036   -6.2519 H   0  0  0  0  0  0  0  0  0  0  0  0
   -5.3180   -3.6333   -6.5279 H   0  0  0  0  0  0  0  0  0  0  0  0
   -5.5247   -5.3862   -8.2279 H   0  0  0  0  0  0  0  0  0  0  0  0
   -4.0980   -5.6324   -7.2496 H   0  0  0  0  0  0  0  0  0  0  0  0
   -5.3180   -7.7349   -7.5598 H   0  0  0  0  0  0  0  0  0  0  0  0
   -5.3180   -7.2569   -5.8792 H   0  0  0  0  0  0  0  0  0  0  0  0
   -7.5514   -7.9811   -6.5815 H   0  0  0  0  0  0  0  0  0  0  0  0
   -7.5514   -6.2865   -6.1552 H   0  0  0  0  0  0  0  0  0  0  0  0
   -8.7714   -6.6611   -8.2472 H   0  0  0  0  0  0  0  0  0  0  0  0
   -7.3447   -5.6908   -8.5233 H   0  0  0  0  0  0  0  0  0  0  0  0
   -7.5514   -7.4437  -10.2232 H   0  0  0  0  0  0  0  0  0  0  0  0
   -6.1247   -7.6899   -9.2449 H   0  0  0  0  0  0  0  0  0  0  0  0
   -7.6917  -10.5247   -7.3313 H   0  0  0  0  0  0  0  0  0  0  0  0
  1  2  1  0  0  0  0
  1 21  1  0  0  0  0
  1 22  1  0  0  0  0
  1 23  1  0  0  0  0
  2  3  1  0  0  0  0
  2 24  1  0  0  0  0
  2 25  1  0  0  0  0
  3  4  1  0  0  0  0
  3 26  1  0  0  0  0
  3 27  1  0  0  0  0
  4  5  1  0  0  0  0
  4 28  1  0  0  0  0
  4 29  1  0  0  0  0
  5  6  1  0  0  0  0
  5 30  1  0  0  0  0
  5 31  1  0  0  0  0
  6  7  1  0  0  0  0
  6 32  1  0  0  0  0
  6 33  1  0  0  0  0
  7  8  1  0  0  0  0
  7 34  1  0  0  0  0
  7 35  1  0  0  0  0
  8  9  1  0  0  0  0
  8 36  1  0  0  0  0
  8 37  1  0  0  0  0
  9 10  2  0  0  0  0
  9 38  1  0  0  0  0
 10 11  1  0  0  0  0
 10 39  1  0  0  0  0
 11 12  1  0  0  0  0
 11 40  1  0  0  0  0
 11 41  1  0  0  0  0
 12 13  1  0  0  0  0
 12 42  1  0  0  0  0
 12 43  1  0  0  0  0
 13 14  1  0  0  0  0
 13 44  1  0  0  0  0
 13 45  1  0  0  0  0
 14 15  1  0  0  0  0
 14 46  1  0  0  0  0
 14 47  1  0  0  0  0
 15 16  1  0  0  0  0
 15 48  1  0  0  0  0
 15 49  1  0  0  0  0
 16 17  1  0  0  0  0
 16 50  1  0  0  0  0
 16 51  1  0  0  0  0
 17 18  1  0  0  0  0
 17 52  1  0  0  0  0
 17 53  1  0  0  0  0
 18 19  2  0  0  0  0
 18 20  1  0  0  0  0
 20 54  1  0  0  0  0
M  END
