REMARK  Name = 
REMARK  6 active torsions:
REMARK  status: ('A' for Active; 'I' for Inactive)
REMARK    1  A    between atoms: C_1  and  O_2
REMARK    2  A    between atoms: O_2  and  C_3
REMARK    3  A    between atoms: C_13  and  C_14
REMARK    4  A    between atoms: C_14  and  C_15
REMARK    5  A    between atoms: C_16  and  C_17
REMARK    6  A    between atoms: C_16  and  C_18
REMARK                            x       y       z     vdW  Elec       q    Type
REMARK                         _______ _______ _______ _____ _____    ______ ____
ROOT
ATOM      1  C   UNL     1       0.868  -1.855  -1.759  0.00  0.00    +0.000 A 
ATOM      2  C   UNL     1      -0.052  -2.554  -2.515  0.00  0.00    +0.000 A 
ATOM      3  C   UNL     1       0.338  -3.166  -3.684  0.00  0.00    +0.000 A 
ATOM      4  C   UNL     1       1.655  -3.067  -4.130  0.00  0.00    +0.000 A 
ATOM      5  C   UNL     1       2.160  -3.699  -5.308  0.00  0.00    +0.000 A 
ATOM      6  C   UNL     1       3.436  -3.543  -5.710  0.00  0.00    +0.000 A 
ATOM      7  C   UNL     1       4.324  -2.646  -4.963  0.00  0.00    +0.000 A 
ATOM      8  O   UNL     1       5.409  -2.271  -5.287  0.00  0.00    +0.000 OA
ATOM      9  O   UNL     1       3.846  -2.160  -3.766  0.00  0.00    +0.000 OA
ATOM     10  C   UNL     1       2.551  -2.334  -3.357  0.00  0.00    +0.000 A 
ATOM     11  C   UNL     1       2.168  -1.737  -2.164  0.00  0.00    +0.000 A 
ENDROOT
BRANCH   1  13
ATOM     12  C   UNL     1       0.998  -0.076  -0.065  0.00  0.00    +0.000 C 
ATOM     13  O   UNL     1       0.525  -1.350  -0.477  0.00  0.00    +0.000 OA
ENDBRANCH   1  13
BRANCH  11  14
ATOM     14  C   UNL     1       3.174  -0.969  -1.324  0.00  0.00    +0.000 C 
BRANCH  14  15
ATOM     15  C   UNL     1       2.714   0.472  -1.174  0.00  0.00    +0.000 C 
ATOM     16  C   UNL     1       2.472   0.985   0.062  0.00  0.00    +0.000 C 
ATOM     17  C   UNL     1       2.012   2.425   0.212  0.00  0.00    +0.000 C 
ATOM     18  C   UNL     1       2.661   0.116   1.295  0.00  0.00    +0.000 C 
ENDBRANCH  14  15
ENDBRANCH  11  14
TORSDOF 3
