
 OpenBabel03132514253D

 50 49  0  0  0  0  0  0  0  0999 V2000
    1.0458    0.0883   -0.0100 C   0  0  0  0  0  0  0  0  0  0  0  0
    0.5391    1.4793    0.3349 C   0  0  0  0  0  0  0  0  0  0  0  0
    1.0458    2.4735   -0.6972 C   0  0  0  0  0  0  0  0  0  0  0  0
    0.5391    2.0767   -2.0743 C   0  0  0  0  0  0  0  0  0  0  0  0
   -0.9809    2.0767   -2.0743 C   0  0  0  0  0  0  0  0  0  0  0  0
   -1.4876    3.4676   -1.7294 C   0  0  0  0  0  0  0  0  0  0  0  0
   -0.9809    4.4618   -2.7615 C   0  0  0  0  0  0  0  0  0  0  0  0
   -1.4876    4.0650   -4.1386 C   0  0  0  0  0  0  0  0  0  0  0  0
   -3.0076    4.0650   -4.1386 C   0  0  0  0  0  0  0  0  0  0  0  0
   -3.5142    5.4560   -3.7936 C   0  0  0  0  0  0  0  0  0  0  0  0
   -3.0076    6.4502   -4.8258 C   0  0  0  0  0  0  0  0  0  0  0  0
   -3.5142    6.0534   -6.2028 C   0  0  0  0  0  0  0  0  0  0  0  0
   -5.0342    6.0534   -6.2028 C   0  0  0  0  0  0  0  0  0  0  0  0
   -5.5409    7.4443   -5.8579 C   0  0  0  0  0  0  0  0  0  0  0  0
   -5.0343    8.4385   -6.8900 C   0  0  0  0  0  0  0  0  0  0  0  0
   -5.5409    8.0418   -8.2671 C   0  0  0  0  0  0  0  0  0  0  0  0
   -6.2716    8.8426   -8.9304 O   0  0  0  0  0  0  0  0  0  0  0  0
   -5.1979    6.7763   -8.8124 O   0  0  0  0  0  0  0  0  0  0  0  0
    0.6891   -0.1910   -0.9794 H   0  0  0  0  0  0  0  0  0  0  0  0
    0.6891   -0.6115    0.7166 H   0  0  0  0  0  0  0  0  0  0  0  0
    2.1158    0.0883   -0.0100 H   0  0  0  0  0  0  0  0  0  0  0  0
   -0.5309    1.4793    0.3349 H   0  0  0  0  0  0  0  0  0  0  0  0
    0.8958    1.7586    1.3043 H   0  0  0  0  0  0  0  0  0  0  0  0
    0.6891    3.4526   -0.4544 H   0  0  0  0  0  0  0  0  0  0  0  0
    2.1158    2.4735   -0.6972 H   0  0  0  0  0  0  0  0  0  0  0  0
    0.8958    2.7765   -2.8008 H   0  0  0  0  0  0  0  0  0  0  0  0
    0.8958    1.0975   -2.3171 H   0  0  0  0  0  0  0  0  0  0  0  0
   -1.3376    1.7974   -3.0436 H   0  0  0  0  0  0  0  0  0  0  0  0
   -1.3375    1.3768   -1.3477 H   0  0  0  0  0  0  0  0  0  0  0  0
   -2.5576    3.4676   -1.7294 H   0  0  0  0  0  0  0  0  0  0  0  0
   -1.1309    3.7469   -0.7600 H   0  0  0  0  0  0  0  0  0  0  0  0
   -1.3376    5.4410   -2.5187 H   0  0  0  0  0  0  0  0  0  0  0  0
    0.0891    4.4618   -2.7615 H   0  0  0  0  0  0  0  0  0  0  0  0
   -1.1309    4.7649   -4.8651 H   0  0  0  0  0  0  0  0  0  0  0  0
   -1.1309    3.0859   -4.3814 H   0  0  0  0  0  0  0  0  0  0  0  0
   -3.3642    3.7857   -5.1079 H   0  0  0  0  0  0  0  0  0  0  0  0
   -3.3642    3.3652   -3.4120 H   0  0  0  0  0  0  0  0  0  0  0  0
   -4.5842    5.4560   -3.7936 H   0  0  0  0  0  0  0  0  0  0  0  0
   -3.1576    5.7353   -2.8243 H   0  0  0  0  0  0  0  0  0  0  0  0
   -3.3642    7.4293   -4.5830 H   0  0  0  0  0  0  0  0  0  0  0  0
   -1.9376    6.4502   -4.8258 H   0  0  0  0  0  0  0  0  0  0  0  0
   -3.1576    6.7533   -6.9294 H   0  0  0  0  0  0  0  0  0  0  0  0
   -3.1576    5.0743   -6.4456 H   0  0  0  0  0  0  0  0  0  0  0  0
   -5.3909    5.7741   -7.1722 H   0  0  0  0  0  0  0  0  0  0  0  0
   -5.3909    5.3536   -5.4763 H   0  0  0  0  0  0  0  0  0  0  0  0
   -6.6109    7.4443   -5.8579 H   0  0  0  0  0  0  0  0  0  0  0  0
   -5.1842    7.7236   -4.8885 H   0  0  0  0  0  0  0  0  0  0  0  0
   -5.3909    9.4177   -6.6472 H   0  0  0  0  0  0  0  0  0  0  0  0
   -3.9643    8.4385   -6.8900 H   0  0  0  0  0  0  0  0  0  0  0  0
   -5.5312    6.5153   -9.7184 H   0  0  0  0  0  0  0  0  0  0  0  0
  1  2  1  0  0  0  0
  1 19  1  0  0  0  0
  1 20  1  0  0  0  0
  1 21  1  0  0  0  0
  2  3  1  0  0  0  0
  2 22  1  0  0  0  0
  2 23  1  0  0  0  0
  3  4  1  0  0  0  0
  3 24  1  0  0  0  0
  3 25  1  0  0  0  0
  4  5  1  0  0  0  0
  4 26  1  0  0  0  0
  4 27  1  0  0  0  0
  5  6  1  0  0  0  0
  5 28  1  0  0  0  0
  5 29  1  0  0  0  0
  6  7  1  0  0  0  0
  6 30  1  0  0  0  0
  6 31  1  0  0  0  0
  7  8  1  0  0  0  0
  7 32  1  0  0  0  0
  7 33  1  0  0  0  0
  8  9  1  0  0  0  0
  8 34  1  0  0  0  0
  8 35  1  0  0  0  0
  9 10  1  0  0  0  0
  9 36  1  0  0  0  0
  9 37  1  0  0  0  0
 10 11  1  0  0  0  0
 10 38  1  0  0  0  0
 10 39  1  0  0  0  0
 11 12  1  0  0  0  0
 11 40  1  0  0  0  0
 11 41  1  0  0  0  0
 12 13  1  0  0  0  0
 12 42  1  0  0  0  0
 12 43  1  0  0  0  0
 13 14  1  0  0  0  0
 13 44  1  0  0  0  0
 13 45  1  0  0  0  0
 14 15  1  0  0  0  0
 14 46  1  0  0  0  0
 14 47  1  0  0  0  0
 15 16  1  0  0  0  0
 15 48  1  0  0  0  0
 15 49  1  0  0  0  0
 16 17  2  0  0  0  0
 16 18  1  0  0  0  0
 18 50  1  0  0  0  0
M  END
