REMARK  Name = 
REMARK  9 active torsions:
REMARK  status: ('A' for Active; 'I' for Inactive)
REMARK    1  A    between atoms: C_2  and  C_3
REMARK    2  A    between atoms: C_2  and  C_4
REMARK    3  A    between atoms: C_6  and  C_7
REMARK    4  A    between atoms: C_14  and  O_15
REMARK    5  A    between atoms: O_15  and  C_16
REMARK    6  A    between atoms: C_16  and  C_18
REMARK    7  A    between atoms: C_18  and  C_19
REMARK    8  A    between atoms: C_20  and  C_21
REMARK    9  A    between atoms: C_22  and  C_23
REMARK                            x       y       z     vdW  Elec       q    Type
REMARK                         _______ _______ _______ _____ _____    ______ ____
ROOT
ATOM      1  C   UNL     1       1.137  -1.823   1.822  0.00  0.00    +0.000 C 
ATOM      2  C   UNL     1       2.459  -1.950   1.120  0.00  0.00    +0.000 C 
ATOM      3  C   UNL     1       3.408  -0.984   1.222  0.00  0.00    +0.000 C 
ATOM      4  C   UNL     1       3.921   0.446   1.170  0.00  0.00    +0.000 C 
ATOM      5  C   UNL     1       3.171   0.102   2.038  0.00  0.00    +0.000 C 
ATOM      6  C   UNL     1       2.195   0.078   2.986  0.00  0.00    +0.000 C 
ATOM      7  C   UNL     1       1.345  -1.151   3.179  0.00  0.00    +0.000 C 
ATOM      8  O   UNL     1       0.877  -1.561   4.288  0.00  0.00    +0.000 OA
ATOM      9  C   UNL     1       4.167   1.554   1.876  0.00  0.00    +0.000 C 
ATOM     10  C   UNL     1       5.746   0.736   1.506  0.00  0.00    +0.000 C 
ATOM     11  C   UNL     1       5.541  -0.089   0.311  0.00  0.00    +0.000 C 
ATOM     12  C   UNL     1       4.635  -1.196   0.474  0.00  0.00    +0.000 C 
ATOM     13  C   UNL     1       4.161  -1.499  -0.939  0.00  0.00    +0.000 C 
ENDROOT
BRANCH   1  15
ATOM     14  C   UNL     1       1.057  -0.060   0.057  0.00  0.00    +0.000 C 
ATOM     15  C   UNL     1       0.377  -0.892   0.890  0.00  0.00    +0.000 C 
ATOM     16  C   UNL     1      -1.143  -0.892   0.890  0.00  0.00    +0.000 C 
ENDBRANCH   1  15
BRANCH  11  17
ATOM     17  O   UNL     1       4.948   0.764  -0.657  0.00  0.00    +0.000 OA
BRANCH  17  18
ATOM     18  C   UNL     1       3.684   1.358  -0.400  0.00  0.00    +0.000 C 
ATOM     19  O   UNL     1       3.084   1.127   0.696  0.00  0.00    +0.000 OA
BRANCH  18  20
ATOM     20  C   UNL     1       3.049   2.272  -1.436  0.00  0.00    +0.000 C 
ATOM     21  C   UNL     1       3.767   2.548  -2.747  0.00  0.00    +0.000 C 
ATOM     22  C   UNL     1       1.839   2.841  -1.190  0.00  0.00    +0.000 C 
ATOM     23  C   UNL     1       1.121   2.565   0.121  0.00  0.00    +0.000 C 
ENDBRANCH  18  20
ENDBRANCH  17  18
ENDBRANCH  11  17
TORSDOF 4
