
 OpenBabel03132512083D

 40 42  0  0  0  0  0  0  0  0999 V2000
    1.0613    0.0789    0.0043 C   0  0  0  0  0  0  0  0  0  0  0  0
    0.5880    0.5798   -1.2373 O   0  0  0  0  0  0  0  0  0  0  0  0
    0.9310    1.8946   -1.6496 C   0  0  0  0  0  0  0  0  0  0  0  0
   -0.0626    2.5867   -2.2155 N   0  0  0  0  0  0  0  0  0  0  0  0
    0.2152    3.8179   -2.6720 C   0  0  0  0  0  0  0  0  0  0  0  0
   -0.8613    4.5986   -3.2987 N   0  0  0  0  0  0  0  0  0  0  0  0
   -2.2109    4.0277   -3.4157 C   0  0  0  0  0  0  0  0  0  0  0  0
   -0.5882    5.9501   -3.8083 C   0  0  0  0  0  0  0  0  0  0  0  0
    1.4730    4.3799   -2.5758 C   0  0  0  0  0  0  0  0  0  0  0  0
    2.5128    3.6429   -2.0034 C   0  0  0  0  0  0  0  0  0  0  0  0
    2.2180    2.3684   -1.5362 C   0  0  0  0  0  0  0  0  0  0  0  0
    3.3025    1.5085   -0.9079 C   0  0  0  0  0  0  0  0  0  0  0  0
    3.6902    0.2963   -1.4562 C   0  0  0  0  0  0  0  0  0  0  0  0
    4.7328   -0.4266   -0.8492 C   0  0  0  0  0  0  0  0  0  0  0  0
    5.3342   -1.7147   -1.0800 C   0  0  0  0  0  0  0  0  0  0  0  0
    5.0313   -2.6711   -2.2218 C   0  0  0  0  0  0  0  0  0  0  0  0
    5.6437   -3.7821   -2.2996 O   0  0  0  0  0  0  0  0  0  0  0  0
    4.0642   -2.3234   -3.2017 O   0  0  0  0  0  0  0  0  0  0  0  0
    6.2377   -1.9064   -0.0603 C   0  0  0  0  0  0  0  0  0  0  0  0
    6.2705   -0.8121    0.7625 N   0  0  0  0  0  0  0  0  0  0  0  0
    5.3438    0.1023    0.3172 C   0  0  0  0  0  0  0  0  0  0  0  0
    4.9696    1.3273    0.8799 C   0  0  0  0  0  0  0  0  0  0  0  0
    3.9488    2.0011    0.2394 C   0  0  0  0  0  0  0  0  0  0  0  0
    3.4036    3.5229    0.8979 Cl  0  0  0  0  0  0  0  0  0  0  0  0
    0.7046   -0.9200    0.1452 H   0  0  0  0  0  0  0  0  0  0  0  0
    0.7046    0.7004    0.7989 H   0  0  0  0  0  0  0  0  0  0  0  0
    2.1313    0.0789    0.0043 H   0  0  0  0  0  0  0  0  0  0  0  0
   -2.9071    4.6476   -2.8905 H   0  0  0  0  0  0  0  0  0  0  0  0
   -2.4878    3.9756   -4.4479 H   0  0  0  0  0  0  0  0  0  0  0  0
   -2.2200    3.0444   -2.9939 H   0  0  0  0  0  0  0  0  0  0  0  0
   -0.2510    6.5725   -3.0059 H   0  0  0  0  0  0  0  0  0  0  0  0
    0.1683    5.9005   -4.5633 H   0  0  0  0  0  0  0  0  0  0  0  0
   -1.4832    6.3612   -4.2266 H   0  0  0  0  0  0  0  0  0  0  0  0
    1.6498    5.3715   -2.9367 H   0  0  0  0  0  0  0  0  0  0  0  0
    3.5011    4.0459   -1.9276 H   0  0  0  0  0  0  0  0  0  0  0  0
    3.2030   -0.0846   -2.3294 H   0  0  0  0  0  0  0  0  0  0  0  0
    3.8649   -2.9527   -3.9529 H   0  0  0  0  0  0  0  0  0  0  0  0
    6.8313   -2.7868    0.0714 H   0  0  0  0  0  0  0  0  0  0  0  0
    6.8808   -0.6944    1.5712 H   0  0  0  0  0  0  0  0  0  0  0  0
    5.4461    1.7186    1.7544 H   0  0  0  0  0  0  0  0  0  0  0  0
  1  2  1  0  0  0  0
  1 25  1  0  0  0  0
  1 26  1  0  0  0  0
  1 27  1  0  0  0  0
  2  3  1  0  0  0  0
  3  4  1  0  0  0  0
  3 11  2  0  0  0  0
  4  5  2  0  0  0  0
  5  6  1  0  0  0  0
  5  9  1  0  0  0  0
  6  7  1  0  0  0  0
  6  8  1  0  0  0  0
  7 28  1  0  0  0  0
  7 29  1  0  0  0  0
  7 30  1  0  0  0  0
  8 31  1  0  0  0  0
  8 32  1  0  0  0  0
  8 33  1  0  0  0  0
  9 10  2  0  0  0  0
  9 34  1  0  0  0  0
 10 11  1  0  0  0  0
 10 35  1  0  0  0  0
 11 12  1  0  0  0  0
 12 13  1  0  0  0  0
 12 23  2  0  0  0  0
 13 14  2  0  0  0  0
 13 36  1  0  0  0  0
 14 15  1  0  0  0  0
 14 21  1  0  0  0  0
 15 16  1  0  0  0  0
 15 19  2  0  0  0  0
 16 17  2  0  0  0  0
 16 18  1  0  0  0  0
 18 37  1  0  0  0  0
 19 20  1  0  0  0  0
 19 38  1  0  0  0  0
 20 21  1  0  0  0  0
 20 39  1  0  0  0  0
 21 22  2  0  0  0  0
 22 23  1  0  0  0  0
 22 40  1  0  0  0  0
 23 24  1  0  0  0  0
M  END
