REMARK  Name = 
REMARK  7 active torsions:
REMARK  status: ('A' for Active; 'I' for Inactive)
REMARK    1  A    between atoms: C_1  and  O_2
REMARK    2  A    between atoms: O_2  and  C_3
REMARK    3  A    between atoms: N_6  and  C_7
REMARK    4  A    between atoms: N_6  and  C_8
REMARK    5  A    between atoms: C_11  and  C_12
REMARK    6  A    between atoms: C_15  and  C_16
REMARK    7  A    between atoms: C_16  and  O_18
REMARK                            x       y       z     vdW  Elec       q    Type
REMARK                         _______ _______ _______ _____ _____    ______ ____
ROOT
ATOM      1  C   UNL     1       3.218  -0.632   1.332  0.00  0.00    +0.000 A 
ATOM      2  C   UNL     1       3.355   0.685   1.738  0.00  0.00    +0.000 A 
ATOM      3  C   UNL     1       4.256   1.521   1.054  0.00  0.00    +0.000 A 
ATOM      4  C   UNL     1       4.597   2.918   1.137  0.00  0.00    +0.000 A 
ATOM      5  C   UNL     1       5.473   3.162   0.104  0.00  0.00    +0.000 A 
ATOM      6  N   UNL     1       5.733   2.009  -0.586  0.00  0.00    +0.000 N 
ATOM      7  C   UNL     1       4.986   0.991  -0.041  0.00  0.00    +0.000 A 
ATOM      8  C   UNL     1       4.865  -0.339  -0.460  0.00  0.00    +0.000 A 
ATOM      9  C   UNL     1       3.974  -1.119   0.251  0.00  0.00    +0.000 A 
ATOM     10 CL   UNL     1       3.744  -2.781  -0.229  0.00  0.00    +0.000 Cl
ATOM     11  H   UNL     1       6.375   1.919  -1.374  0.00  0.00    +0.000 HD
ENDROOT
BRANCH   1  20
ATOM     12  C   UNL     1       0.865  -1.098   2.087  0.00  0.00    +0.000 A 
ATOM     13  N   UNL     1      -0.089  -1.786   2.722  0.00  0.00    +0.000 NA
ATOM     14  C   UNL     1       0.267  -2.929   3.331  0.00  0.00    +0.000 A 
ATOM     15  N   UNL     1      -0.764  -3.704   4.036  0.00  0.00    +0.000 N 
ATOM     16  C   UNL     1      -2.153  -3.224   4.065  0.00  0.00    +0.000 C 
ATOM     17  C   UNL     1      -0.406  -4.959   4.712  0.00  0.00    +0.000 C 
ATOM     18  C   UNL     1       1.563  -3.404   3.320  0.00  0.00    +0.000 A 
ATOM     19  C   UNL     1       2.559  -2.669   2.673  0.00  0.00    +0.000 A 
ATOM     20  C   UNL     1       2.184  -1.486   2.049  0.00  0.00    +0.000 A 
BRANCH  12  22
ATOM     21  C   UNL     1       0.995   0.063  -0.078  0.00  0.00    +0.000 C 
ATOM     22  O   UNL     1       0.522   0.004   1.260  0.00  0.00    +0.000 OA
ENDBRANCH  12  22
ENDBRANCH   1  20
BRANCH   4  23
ATOM     23  C   UNL     1       4.090   3.921   2.159  0.00  0.00    +0.000 C 
ATOM     24  O   UNL     1       4.479   5.130   2.110  0.00  0.00    +0.000 OA
BRANCH  23  25
ATOM     25  O   UNL     1       3.182   3.508   3.170  0.00  0.00    +0.000 OA
ATOM     26  H   UNL     1       2.848   4.168   3.843  0.00  0.00    +0.000 HD
ENDBRANCH  23  25
ENDBRANCH   4  23
TORSDOF 4
