
 OpenBabel03132514253D

 40 42  0  0  0  0  0  0  0  0999 V2000
    0.9950    0.0629   -0.0776 C   0  0  0  0  0  0  0  0  0  0  0  0
    0.5216    0.0044    1.2599 O   0  0  0  0  0  0  0  0  0  0  0  0
    0.8647   -1.0978    2.0869 C   0  0  0  0  0  0  0  0  0  0  0  0
   -0.0887   -1.7864    2.7220 N   0  0  0  0  0  0  0  0  0  0  0  0
    0.2665   -2.9288    3.3306 C   0  0  0  0  0  0  0  0  0  0  0  0
   -0.7644   -3.7037    4.0359 N   0  0  0  0  0  0  0  0  0  0  0  0
   -2.1534   -3.2235    4.0651 C   0  0  0  0  0  0  0  0  0  0  0  0
   -0.4064   -4.9589    4.7120 C   0  0  0  0  0  0  0  0  0  0  0  0
    1.5630   -3.4044    3.3198 C   0  0  0  0  0  0  0  0  0  0  0  0
    2.5594   -2.6688    2.6733 C   0  0  0  0  0  0  0  0  0  0  0  0
    2.1843   -1.4862    2.0485 C   0  0  0  0  0  0  0  0  0  0  0  0
    3.2177   -0.6325    1.3318 C   0  0  0  0  0  0  0  0  0  0  0  0
    3.3548    0.6854    1.7376 C   0  0  0  0  0  0  0  0  0  0  0  0
    4.2565    1.5210    1.0544 C   0  0  0  0  0  0  0  0  0  0  0  0
    4.5971    2.9179    1.1366 C   0  0  0  0  0  0  0  0  0  0  0  0
    4.0900    3.9215    2.1594 C   0  0  0  0  0  0  0  0  0  0  0  0
    4.4787    5.1305    2.1102 O   0  0  0  0  0  0  0  0  0  0  0  0
    3.1820    3.5082    3.1699 O   0  0  0  0  0  0  0  0  0  0  0  0
    5.4731    3.1624    0.1044 C   0  0  0  0  0  0  0  0  0  0  0  0
    5.7333    2.0088   -0.5863 N   0  0  0  0  0  0  0  0  0  0  0  0
    4.9857    0.9905   -0.0413 C   0  0  0  0  0  0  0  0  0  0  0  0
    4.8646   -0.3390   -0.4599 C   0  0  0  0  0  0  0  0  0  0  0  0
    3.9741   -1.1187    0.2510 C   0  0  0  0  0  0  0  0  0  0  0  0
    3.7437   -2.7811   -0.2288 Cl  0  0  0  0  0  0  0  0  0  0  0  0
    0.6383    0.9578   -0.5433 H   0  0  0  0  0  0  0  0  0  0  0  0
    0.6383   -0.7879   -0.6197 H   0  0  0  0  0  0  0  0  0  0  0  0
    2.0650    0.0629   -0.0776 H   0  0  0  0  0  0  0  0  0  0  0  0
   -2.7925   -3.9524    3.6122 H   0  0  0  0  0  0  0  0  0  0  0  0
   -2.4551   -3.0658    5.0795 H   0  0  0  0  0  0  0  0  0  0  0  0
   -2.2238   -2.3026    3.5248 H   0  0  0  0  0  0  0  0  0  0  0  0
   -0.0088   -5.6485    3.9969 H   0  0  0  0  0  0  0  0  0  0  0  0
    0.3286   -4.7618    5.4642 H   0  0  0  0  0  0  0  0  0  0  0  0
   -1.2783   -5.3802    5.1671 H   0  0  0  0  0  0  0  0  0  0  0  0
    1.8024   -4.3288    3.8027 H   0  0  0  0  0  0  0  0  0  0  0  0
    3.5753   -3.0045    2.6599 H   0  0  0  0  0  0  0  0  0  0  0  0
    2.7826    1.0622    2.5594 H   0  0  0  0  0  0  0  0  0  0  0  0
    2.8484    4.1684    3.8428 H   0  0  0  0  0  0  0  0  0  0  0  0
    5.8924    4.1195   -0.1263 H   0  0  0  0  0  0  0  0  0  0  0  0
    6.3749    1.9194   -1.3742 H   0  0  0  0  0  0  0  0  0  0  0  0
    5.4283   -0.7282   -1.2818 H   0  0  0  0  0  0  0  0  0  0  0  0
  1  2  1  0  0  0  0
  1 25  1  0  0  0  0
  1 26  1  0  0  0  0
  1 27  1  0  0  0  0
  2  3  1  0  0  0  0
  3  4  1  0  0  0  0
  3 11  2  0  0  0  0
  4  5  2  0  0  0  0
  5  6  1  0  0  0  0
  5  9  1  0  0  0  0
  6  7  1  0  0  0  0
  6  8  1  0  0  0  0
  7 28  1  0  0  0  0
  7 29  1  0  0  0  0
  7 30  1  0  0  0  0
  8 31  1  0  0  0  0
  8 32  1  0  0  0  0
  8 33  1  0  0  0  0
  9 10  2  0  0  0  0
  9 34  1  0  0  0  0
 10 11  1  0  0  0  0
 10 35  1  0  0  0  0
 11 12  1  0  0  0  0
 12 13  1  0  0  0  0
 12 23  2  0  0  0  0
 13 14  2  0  0  0  0
 13 36  1  0  0  0  0
 14 15  1  0  0  0  0
 14 21  1  0  0  0  0
 15 16  1  0  0  0  0
 15 19  2  0  0  0  0
 16 17  2  0  0  0  0
 16 18  1  0  0  0  0
 18 37  1  0  0  0  0
 19 20  1  0  0  0  0
 19 38  1  0  0  0  0
 20 21  1  0  0  0  0
 20 39  1  0  0  0  0
 21 22  2  0  0  0  0
 22 23  1  0  0  0  0
 22 40  1  0  0  0  0
 23 24  1  0  0  0  0
M  END
