REMARK  Name = 
REMARK  7 active torsions:
REMARK  status: ('A' for Active; 'I' for Inactive)
REMARK    1  A    between atoms: C_1  and  O_2
REMARK    2  A    between atoms: O_2  and  C_3
REMARK    3  A    between atoms: N_6  and  C_7
REMARK    4  A    between atoms: N_6  and  C_8
REMARK    5  A    between atoms: C_11  and  C_12
REMARK    6  A    between atoms: C_15  and  C_16
REMARK    7  A    between atoms: C_16  and  O_18
REMARK                            x       y       z     vdW  Elec       q    Type
REMARK                         _______ _______ _______ _____ _____    ______ ____
ROOT
ATOM      1  C   UNL     1       3.303   1.508  -0.908  0.00  0.00    +0.000 A 
ATOM      2  C   UNL     1       3.690   0.296  -1.456  0.00  0.00    +0.000 A 
ATOM      3  C   UNL     1       4.733  -0.427  -0.849  0.00  0.00    +0.000 A 
ATOM      4  C   UNL     1       5.334  -1.715  -1.080  0.00  0.00    +0.000 A 
ATOM      5  C   UNL     1       6.238  -1.906  -0.060  0.00  0.00    +0.000 A 
ATOM      6  N   UNL     1       6.271  -0.812   0.762  0.00  0.00    +0.000 N 
ATOM      7  C   UNL     1       5.344   0.102   0.317  0.00  0.00    +0.000 A 
ATOM      8  C   UNL     1       4.970   1.327   0.880  0.00  0.00    +0.000 A 
ATOM      9  C   UNL     1       3.949   2.001   0.239  0.00  0.00    +0.000 A 
ATOM     10 CL   UNL     1       3.404   3.523   0.898  0.00  0.00    +0.000 Cl
ATOM     11  H   UNL     1       6.881  -0.694   1.571  0.00  0.00    +0.000 HD
ENDROOT
BRANCH   1  20
ATOM     12  C   UNL     1       0.931   1.895  -1.650  0.00  0.00    +0.000 A 
ATOM     13  N   UNL     1      -0.063   2.587  -2.216  0.00  0.00    +0.000 NA
ATOM     14  C   UNL     1       0.215   3.818  -2.672  0.00  0.00    +0.000 A 
ATOM     15  N   UNL     1      -0.861   4.599  -3.299  0.00  0.00    +0.000 N 
ATOM     16  C   UNL     1      -2.211   4.028  -3.416  0.00  0.00    +0.000 C 
ATOM     17  C   UNL     1      -0.588   5.950  -3.808  0.00  0.00    +0.000 C 
ATOM     18  C   UNL     1       1.473   4.380  -2.576  0.00  0.00    +0.000 A 
ATOM     19  C   UNL     1       2.513   3.643  -2.003  0.00  0.00    +0.000 A 
ATOM     20  C   UNL     1       2.218   2.368  -1.536  0.00  0.00    +0.000 A 
BRANCH  12  22
ATOM     21  C   UNL     1       1.061   0.079   0.004  0.00  0.00    +0.000 C 
ATOM     22  O   UNL     1       0.588   0.580  -1.237  0.00  0.00    +0.000 OA
ENDBRANCH  12  22
ENDBRANCH   1  20
BRANCH   4  23
ATOM     23  C   UNL     1       5.031  -2.671  -2.222  0.00  0.00    +0.000 C 
ATOM     24  O   UNL     1       5.644  -3.782  -2.300  0.00  0.00    +0.000 OA
BRANCH  23  25
ATOM     25  O   UNL     1       4.064  -2.323  -3.202  0.00  0.00    +0.000 OA
ATOM     26  H   UNL     1       3.865  -2.953  -3.953  0.00  0.00    +0.000 HD
ENDBRANCH  23  25
ENDBRANCH   4  23
TORSDOF 4
