
 OpenBabel03132512093D

 30 31  0  0  0  0  0  0  0  0999 V2000
    2.3910   -0.9530    0.0170 O   0  0  0  0  0  0  0  0  0  0  0  0
    1.1920   -0.2480   -0.0130 C   0  0  0  0  0  0  0  0  0  0  0  0
    0.0150   -0.9750   -0.0110 C   0  0  0  0  0  0  0  0  0  0  0  0
   -1.1850   -0.2720    0.0080 C   0  0  0  0  0  0  0  0  0  0  0  0
   -2.3810   -0.9590   -0.0070 O   0  0  0  0  0  0  0  0  0  0  0  0
   -1.2120    1.0940    0.0220 C   0  0  0  0  0  0  0  0  0  0  0  0
   -0.0180    1.8230    0.0000 C   0  0  0  0  0  0  0  0  0  0  0  0
   -0.0380    3.3429   -0.0021 C   0  0  0  0  0  0  0  0  0  0  0  0
   -1.2248    4.0076    0.0175 C   0  0  0  0  0  0  0  0  0  0  0  0
   -1.2447    5.5274    0.0154 C   0  0  0  0  0  0  0  0  0  0  0  0
   -0.4110    6.2336   -0.8584 C   0  0  0  0  0  0  0  0  0  0  0  0
   -0.4516    7.6378   -0.8221 C   0  0  0  0  0  0  0  0  0  0  0  0
   -1.3046    8.3117    0.0359 C   0  0  0  0  0  0  0  0  0  0  0  0
   -1.3591    9.6756    0.1008 O   0  0  0  0  0  0  0  0  0  0  0  0
   -2.1340    7.5883    0.8970 C   0  0  0  0  0  0  0  0  0  0  0  0
   -3.0168    8.2023    1.7289 O   0  0  0  0  0  0  0  0  0  0  0  0
   -2.0868    6.2055    0.8779 C   0  0  0  0  0  0  0  0  0  0  0  0
    1.1940    1.1260   -0.0200 C   0  0  0  0  0  0  0  0  0  0  0  0
    3.2610   -0.4600    0.0165 H   0  0  0  0  0  0  0  0  0  0  0  0
    0.0274   -2.0449   -0.0237 H   0  0  0  0  0  0  0  0  0  0  0  0
   -3.2460   -0.4574    0.0066 H   0  0  0  0  0  0  0  0  0  0  0  0
   -2.1499    1.6082    0.0499 H   0  0  0  0  0  0  0  0  0  0  0  0
    0.8814    3.8900   -0.0190 H   0  0  0  0  0  0  0  0  0  0  0  0
   -2.1442    3.4605    0.0344 H   0  0  0  0  0  0  0  0  0  0  0  0
    0.2389    5.7192   -1.5351 H   0  0  0  0  0  0  0  0  0  0  0  0
    0.1896    8.1977   -1.4704 H   0  0  0  0  0  0  0  0  0  0  0  0
   -0.7808   10.2282   -0.4993 H   0  0  0  0  0  0  0  0  0  0  0  0
   -3.0659    9.2007    1.7570 H   0  0  0  0  0  0  0  0  0  0  0  0
   -2.7141    5.6499    1.5434 H   0  0  0  0  0  0  0  0  0  0  0  0
    2.1204    1.6611   -0.0407 H   0  0  0  0  0  0  0  0  0  0  0  0
  1  2  1  0  0  0  0
  1 19  1  0  0  0  0
  2  3  1  0  0  0  0
  2 18  2  0  0  0  0
  3  4  2  0  0  0  0
  3 20  1  0  0  0  0
  4  5  1  0  0  0  0
  4  6  1  0  0  0  0
  5 21  1  0  0  0  0
  6  7  2  0  0  0  0
  6 22  1  0  0  0  0
  7  8  1  0  0  0  0
  7 18  1  0  0  0  0
  8  9  2  0  0  0  0
  8 23  1  0  0  0  0
  9 10  1  0  0  0  0
  9 24  1  0  0  0  0
 10 11  1  0  0  0  0
 10 17  2  0  0  0  0
 11 12  2  0  0  0  0
 11 25  1  0  0  0  0
 12 13  1  0  0  0  0
 12 26  1  0  0  0  0
 13 14  1  0  0  0  0
 13 15  2  0  0  0  0
 14 27  1  0  0  0  0
 15 16  1  0  0  0  0
 15 17  1  0  0  0  0
 16 28  1  0  0  0  0
 17 29  1  0  0  0  0
 18 30  1  0  0  0  0
M  END
