REMARK  Name = 
REMARK  9 active torsions:
REMARK  status: ('A' for Active; 'I' for Inactive)
REMARK    1  A    between atoms: C_4  and  C_5
REMARK    2  A    between atoms: C_14  and  O_15
REMARK    3  A    between atoms: O_15  and  C_16
REMARK    4  A    between atoms: C_18  and  C_19
REMARK    5  A    between atoms: C_19  and  O_20
REMARK    6  A    between atoms: C_21  and  O_22
REMARK    7  A    between atoms: C_23  and  O_24
REMARK    8  A    between atoms: C_25  and  O_26
REMARK    9  A    between atoms: C_28  and  O_29
REMARK                            x       y       z     vdW  Elec       q    Type
REMARK                         _______ _______ _______ _____ _____    ______ ____
ROOT
ATOM      1  O   UNL     1       0.970   2.318  -0.033  0.00  0.00    +0.000 OA
ATOM      2  C   UNL     1       1.077   1.092   0.047  0.00  0.00    +0.000 C 
ATOM      3  C   UNL     1       2.426   0.455   0.247  0.00  0.00    +0.000 C 
ATOM      4  C   UNL     1       2.482  -0.951  -0.344  0.00  0.00    +0.000 C 
ATOM      5  O   UNL     1       1.372  -1.758   0.064  0.00  0.00    +0.000 OA
ATOM      6  C   UNL     1       0.123  -1.194   0.031  0.00  0.00    +0.000 A 
ATOM      7  C   UNL     1      -0.944  -2.049   0.050  0.00  0.00    +0.000 A 
ATOM      8  C   UNL     1      -2.232  -1.533   0.012  0.00  0.00    +0.000 A 
ATOM      9  C   UNL     1      -2.478  -0.161  -0.043  0.00  0.00    +0.000 A 
ATOM     10  C   UNL     1      -1.379   0.694  -0.022  0.00  0.00    +0.000 A 
ATOM     11  C   UNL     1      -0.061   0.194   0.017  0.00  0.00    +0.000 A 
ENDROOT
BRANCH   4  12
ATOM     12  C   UNL     1       2.430  -0.821  -1.857  0.00  0.00    +0.000 A 
ATOM     13  C   UNL     1       1.375  -1.398  -2.545  0.00  0.00    +0.000 A 
ATOM     14  C   UNL     1       1.561  -1.445  -3.947  0.00  0.00    +0.000 A 
ATOM     15  C   UNL     1       2.439  -0.716  -4.610  0.00  0.00    +0.000 A 
ATOM     16  C   UNL     1       3.417  -0.116  -3.866  0.00  0.00    +0.000 A 
ATOM     17  C   UNL     1       3.375  -0.138  -2.493  0.00  0.00    +0.000 A 
ENDBRANCH   4  12
BRANCH  10  18
ATOM     18  O   UNL     1      -1.604   2.031  -0.028  0.00  0.00    +0.000 OA
ATOM     19  H   UNL     1      -0.833   2.668  -0.013  0.00  0.00    +0.000 HD
ENDBRANCH  10  18
BRANCH   8  20
ATOM     20  O   UNL     1      -3.333  -2.429   0.030  0.00  0.00    +0.000 OA
BRANCH  20  21
ATOM     21  C   UNL     1      -4.660  -1.925  -0.009  0.00  0.00    +0.000 C 
ATOM     22  O   UNL     1      -5.089  -1.299   1.321  0.00  0.00    +0.000 OA
ATOM     23  C   UNL     1      -4.605   0.044   1.393  0.00  0.00    +0.000 C 
ATOM     24  C   UNL     1      -5.109   0.901   0.366  0.00  0.00    +0.000 C 
ATOM     25  C   UNL     1      -4.680   0.364  -1.001  0.00  0.00    +0.000 C 
ATOM     26  C   UNL     1      -5.195  -1.070  -1.162  0.00  0.00    +0.000 C 
BRANCH  24  27
ATOM     27  O   UNL     1      -4.589   2.210   0.545  0.00  0.00    +0.000 OA
ATOM     28  H   UNL     1      -3.591   2.182   0.496  0.00  0.00    +0.000 HD
ENDBRANCH  24  27
BRANCH  25  29
ATOM     29  O   UNL     1      -3.264   0.377  -1.097  0.00  0.00    +0.000 OA
ATOM     30  H   UNL     1      -2.876  -0.199  -0.378  0.00  0.00    +0.000 HD
ENDBRANCH  25  29
BRANCH  26  31
ATOM     31  O   UNL     1      -4.750  -1.603  -2.400  0.00  0.00    +0.000 OA
ATOM     32  H   UNL     1      -3.750  -1.604  -2.423  0.00  0.00    +0.000 HD
ENDBRANCH  26  31
BRANCH  23  33
ATOM     33  C   UNL     1      -3.098  -0.023   1.208  0.00  0.00    +0.000 C 
BRANCH  33  34
ATOM     34  O   UNL     1      -2.552   1.285   1.298  0.00  0.00    +0.000 OA
ATOM     35  H   UNL     1      -2.950   1.862   0.584  0.00  0.00    +0.000 HD
ENDBRANCH  33  34
ENDBRANCH  23  33
ENDBRANCH  20  21
ENDBRANCH   8  20
TORSDOF 9
