REMARK  Name = 
REMARK  10 active torsions:
REMARK  status: ('A' for Active; 'I' for Inactive)
REMARK    1  A    between atoms: C_1  and  C_2
REMARK    2  A    between atoms: C_3  and  C_4
REMARK    3  A    between atoms: C_4  and  O_6
REMARK    4  A    between atoms: C_9  and  C_10
REMARK    5  A    between atoms: C_13  and  C_14
REMARK    6  A    between atoms: C_19  and  C_20
REMARK    7  A    between atoms: C_23  and  O_24
REMARK    8  A    between atoms: C_25  and  C_26
REMARK    9  A    between atoms: C_25  and  C_27
REMARK   10  A    between atoms: C_31  and  C_32
REMARK                            x       y       z     vdW  Elec       q    Type
REMARK                         _______ _______ _______ _____ _____    ______ ____
ROOT
ATOM      1  C   UNL     1       0.900  -0.003   0.003  0.00  0.00    +0.000 C 
ATOM      2  C   UNL     1       0.393   1.160  -0.834  0.00  0.00    +0.000 C 
ATOM      3  C   UNL     1       1.409   1.783  -1.757  0.00  0.00    +0.000 C 
ATOM      4  C   UNL     1       2.575   0.921  -1.844  0.00  0.00    +0.000 C 
ATOM      5  C   UNL     1       3.137   0.779  -3.055  0.00  0.00    +0.000 C 
ATOM      6  C   UNL     1       4.349  -0.101  -3.224  0.00  0.00    +0.000 C 
ATOM      7  C   UNL     1       5.839  -0.190  -2.935  0.00  0.00    +0.000 C 
ATOM      8  C   UNL     1       4.162  -0.996  -4.450  0.00  0.00    +0.000 C 
ATOM      9  C   UNL     1       3.692  -2.379  -4.001  0.00  0.00    +0.000 C 
ATOM     10  C   UNL     1       2.268  -2.622  -4.507  0.00  0.00    +0.000 C 
ATOM     11  C   UNL     1       2.481  -2.650  -6.011  0.00  0.00    +0.000 C 
ATOM     12  C   UNL     1      -0.667  -0.961  -1.490  0.00  0.00    +0.000 C 
ATOM     13  C   UNL     1      -1.067  -1.610  -2.556  0.00  0.00    +0.000 C 
ATOM     14  C   UNL     1      -0.880  -3.103  -2.645  0.00  0.00    +0.000 C 
ATOM     15  C   UNL     1      -0.001  -3.436  -3.853  0.00  0.00    +0.000 C 
ATOM     16  C   UNL     1      -0.258  -2.428  -4.961  0.00  0.00    +0.000 C 
ATOM     17  C   UNL     1      -1.713  -2.517  -5.392  0.00  0.00    +0.000 C 
ATOM     18  C   UNL     1       0.103  -1.052  -4.397  0.00  0.00    +0.000 C 
ATOM     19  C   UNL     1       1.501  -1.011  -4.100  0.00  0.00    +0.000 C 
ATOM     20  C   UNL     1       2.344  -1.212  -5.236  0.00  0.00    +0.000 C 
ATOM     21  C   UNL     1       2.073  -2.594  -5.834  0.00  0.00    +0.000 C 
ATOM     22  C   UNL     1       2.421  -3.669  -4.817  0.00  0.00    +0.000 C 
ATOM     23  C   UNL     1       2.925  -2.787  -7.078  0.00  0.00    +0.000 C 
ATOM     24  C   UNL     1       0.591  -2.699  -6.207  0.00  0.00    +0.000 C 
ATOM     25  C   UNL     1       0.292  -4.091  -6.739  0.00  0.00    +0.000 C 
ATOM     26  C   UNL     1       1.597  -2.658  -2.109  0.00  0.00    +0.000 C 
ATOM     27  C   UNL     1       1.471  -3.377  -3.442  0.00  0.00    +0.000 C 
ATOM     28  C   UNL     1       2.017  -4.790  -3.308  0.00  0.00    +0.000 C 
ATOM     29  C   UNL     1      -0.854   0.531  -1.401  0.00  0.00    +0.000 C 
ENDROOT
BRANCH   3  30
ATOM     30  C   UNL     1       0.800   1.956  -3.139  0.00  0.00    +0.000 C 
ATOM     31  O   UNL     1       0.707   3.114  -3.652  0.00  0.00    +0.000 OA
BRANCH  30  32
ATOM     32  O   UNL     1       0.335   0.822  -3.856  0.00  0.00    +0.000 OA
ATOM     33  H   UNL     1      -0.065   0.935  -4.766  0.00  0.00    +0.000 HD
ENDBRANCH  30  32
ENDBRANCH   3  30
BRANCH  20  34
ATOM     34  O   UNL     1       3.704  -1.127  -4.837  0.00  0.00    +0.000 OA
ATOM     35  H   UNL     1       3.895  -1.830  -4.152  0.00  0.00    +0.000 HD
ENDBRANCH  20  34
TORSDOF 3
