
 OpenBabel03132512093D

 81 85  0  0  0  0  0  0  0  0999 V2000
    0.9001   -0.0031    0.0025 C   0  0  0  0  0  0  0  0  0  0  0  0
    0.3934    1.1604   -0.8341 C   0  0  0  0  0  0  0  0  0  0  0  0
    1.4088    1.7834   -1.7567 C   0  0  0  0  0  0  0  0  0  0  0  0
    0.8001    1.9556   -3.1389 C   0  0  0  0  0  0  0  0  0  0  0  0
    0.7073    3.1144   -3.6524 O   0  0  0  0  0  0  0  0  0  0  0  0
    0.3353    0.8218   -3.8563 O   0  0  0  0  0  0  0  0  0  0  0  0
    2.5752    0.9213   -1.8444 C   0  0  0  0  0  0  0  0  0  0  0  0
    3.1373    0.7790   -3.0548 C   0  0  0  0  0  0  0  0  0  0  0  0
    4.3489   -0.1007   -3.2237 C   0  0  0  0  0  0  0  0  0  0  0  0
    5.8386   -0.1903   -2.9353 C   0  0  0  0  0  0  0  0  0  0  0  0
    4.1618   -0.9964   -4.4500 C   0  0  0  0  0  0  0  0  0  0  0  0
    3.6919   -2.3790   -4.0012 C   0  0  0  0  0  0  0  0  0  0  0  0
    2.2684   -2.6217   -4.5066 C   0  0  0  0  0  0  0  0  0  0  0  0
    2.4812   -2.6498   -6.0114 C   0  0  0  0  0  0  0  0  0  0  0  0
   -0.6673   -0.9614   -1.4897 C   0  0  0  0  0  0  0  0  0  0  0  0
   -1.0667   -1.6098   -2.5559 C   0  0  0  0  0  0  0  0  0  0  0  0
   -0.8802   -3.1027   -2.6450 C   0  0  0  0  0  0  0  0  0  0  0  0
   -0.0008   -3.4356   -3.8528 C   0  0  0  0  0  0  0  0  0  0  0  0
   -0.2584   -2.4277   -4.9610 C   0  0  0  0  0  0  0  0  0  0  0  0
   -1.7133   -2.5173   -5.3919 C   0  0  0  0  0  0  0  0  0  0  0  0
    0.1032   -1.0518   -4.3969 C   0  0  0  0  0  0  0  0  0  0  0  0
    1.5007   -1.0114   -4.1002 C   0  0  0  0  0  0  0  0  0  0  0  0
    2.3439   -1.2119   -5.2360 C   0  0  0  0  0  0  0  0  0  0  0  0
    3.7041   -1.1267   -4.8371 O   0  0  0  0  0  0  0  0  0  0  0  0
    2.0729   -2.5944   -5.8341 C   0  0  0  0  0  0  0  0  0  0  0  0
    2.4210   -3.6689   -4.8168 C   0  0  0  0  0  0  0  0  0  0  0  0
    2.9253   -2.7866   -7.0778 C   0  0  0  0  0  0  0  0  0  0  0  0
    0.5908   -2.6987   -6.2072 C   0  0  0  0  0  0  0  0  0  0  0  0
    0.2923   -4.0911   -6.7388 C   0  0  0  0  0  0  0  0  0  0  0  0
    1.5974   -2.6577   -2.1089 C   0  0  0  0  0  0  0  0  0  0  0  0
    1.4714   -3.3774   -3.4418 C   0  0  0  0  0  0  0  0  0  0  0  0
    2.0166   -4.7900   -3.3083 C   0  0  0  0  0  0  0  0  0  0  0  0
   -0.8540    0.5306   -1.4010 C   0  0  0  0  0  0  0  0  0  0  0  0
    0.5434   -0.9227   -0.4123 H   0  0  0  0  0  0  0  0  0  0  0  0
    0.5434    0.0975    1.0063 H   0  0  0  0  0  0  0  0  0  0  0  0
    1.9701   -0.0031    0.0025 H   0  0  0  0  0  0  0  0  0  0  0  0
    0.1802    2.0718   -0.3157 H   0  0  0  0  0  0  0  0  0  0  0  0
    1.6995    2.7394   -1.3740 H   0  0  0  0  0  0  0  0  0  0  0  0
   -0.0652    0.9351   -4.7656 H   0  0  0  0  0  0  0  0  0  0  0  0
    3.3212    1.4009   -1.2459 H   0  0  0  0  0  0  0  0  0  0  0  0
    2.2838   -0.0515   -1.5073 H   0  0  0  0  0  0  0  0  0  0  0  0
    3.5123    1.7581   -3.2686 H   0  0  0  0  0  0  0  0  0  0  0  0
    2.3802    0.3900   -3.7032 H   0  0  0  0  0  0  0  0  0  0  0  0
    6.3436    0.6242   -3.4111 H   0  0  0  0  0  0  0  0  0  0  0  0
    6.0008   -0.1422   -1.8787 H   0  0  0  0  0  0  0  0  0  0  0  0
    6.2199   -1.1160   -3.3129 H   0  0  0  0  0  0  0  0  0  0  0  0
    3.4304   -0.5640   -5.1004 H   0  0  0  0  0  0  0  0  0  0  0  0
    5.0919   -1.0872   -4.9710 H   0  0  0  0  0  0  0  0  0  0  0  0
    4.3452   -3.1256   -4.4019 H   0  0  0  0  0  0  0  0  0  0  0  0
    3.7048   -2.4307   -2.9325 H   0  0  0  0  0  0  0  0  0  0  0  0
    1.6420   -3.1184   -6.4815 H   0  0  0  0  0  0  0  0  0  0  0  0
    2.5814   -1.6489   -6.3761 H   0  0  0  0  0  0  0  0  0  0  0  0
    3.3699   -3.2018   -6.2357 H   0  0  0  0  0  0  0  0  0  0  0  0
   -1.5256   -1.0791   -3.3638 H   0  0  0  0  0  0  0  0  0  0  0  0
   -1.8337   -3.5752   -2.7569 H   0  0  0  0  0  0  0  0  0  0  0  0
   -0.4090   -3.4572   -1.7522 H   0  0  0  0  0  0  0  0  0  0  0  0
   -0.2346   -4.4189   -4.2041 H   0  0  0  0  0  0  0  0  0  0  0  0
   -1.9190   -3.5044   -5.7501 H   0  0  0  0  0  0  0  0  0  0  0  0
   -2.3465   -2.3017   -4.5569 H   0  0  0  0  0  0  0  0  0  0  0  0
   -1.8984   -1.8090   -6.1723 H   0  0  0  0  0  0  0  0  0  0  0  0
   -0.1302   -0.2974   -5.1189 H   0  0  0  0  0  0  0  0  0  0  0  0
   -0.4567   -0.8745   -3.5025 H   0  0  0  0  0  0  0  0  0  0  0  0
    1.6962   -1.8177   -3.4244 H   0  0  0  0  0  0  0  0  0  0  0  0
    1.7272   -0.0546   -3.6782 H   0  0  0  0  0  0  0  0  0  0  0  0
    2.1397   -0.4598   -5.9691 H   0  0  0  0  0  0  0  0  0  0  0  0
    3.8952   -1.8296   -4.1520 H   0  0  0  0  0  0  0  0  0  0  0  0
    2.2291   -4.6338   -5.2375 H   0  0  0  0  0  0  0  0  0  0  0  0
    3.4562   -3.5924   -4.5573 H   0  0  0  0  0  0  0  0  0  0  0  0
    1.8227   -3.5368   -3.9396 H   0  0  0  0  0  0  0  0  0  0  0  0
    2.6812   -2.0334   -7.7975 H   0  0  0  0  0  0  0  0  0  0  0  0
    3.9600   -2.7084   -6.8166 H   0  0  0  0  0  0  0  0  0  0  0  0
    2.7349   -3.7535   -7.4948 H   0  0  0  0  0  0  0  0  0  0  0  0
    0.3596   -1.9770   -6.9626 H   0  0  0  0  0  0  0  0  0  0  0  0
    0.8887   -4.2767   -7.6075 H   0  0  0  0  0  0  0  0  0  0  0  0
    0.5220   -4.8168   -5.9868 H   0  0  0  0  0  0  0  0  0  0  0  0
    1.0398   -3.1863   -1.3641 H   0  0  0  0  0  0  0  0  0  0  0  0
    2.6272   -2.6170   -1.8214 H   0  0  0  0  0  0  0  0  0  0  0  0
    3.0464   -4.7492   -3.0209 H   0  0  0  0  0  0  0  0  0  0  0  0
    1.4590   -5.3185   -2.5635 H   0  0  0  0  0  0  0  0  0  0  0  0
    1.9280   -5.2966   -4.2466 H   0  0  0  0  0  0  0  0  0  0  0  0
   -1.8596    0.8961   -1.3949 H   0  0  0  0  0  0  0  0  0  0  0  0
  1  2  1  0  0  0  0
  1 34  1  0  0  0  0
  1 35  1  0  0  0  0
  1 36  1  0  0  0  0
  2  3  1  0  0  0  0
  2 33  1  0  0  0  0
  2 37  1  0  0  0  0
  3  4  1  0  0  0  0
  3  7  1  0  0  0  0
  3 38  1  0  0  0  0
  4  5  2  0  0  0  0
  4  6  1  0  0  0  0
  6 39  1  0  0  0  0
  7  8  1  0  0  0  0
  7 40  1  0  0  0  0
  7 41  1  0  0  0  0
  8  9  1  0  0  0  0
  8 42  1  0  0  0  0
  8 43  1  0  0  0  0
  9 10  1  0  0  0  0
  9 11  1  0  0  0  0
  9 33  1  0  0  0  0
 10 44  1  0  0  0  0
 10 45  1  0  0  0  0
 10 46  1  0  0  0  0
 11 12  1  0  0  0  0
 11 47  1  0  0  0  0
 11 48  1  0  0  0  0
 12 13  1  0  0  0  0
 12 49  1  0  0  0  0
 12 50  1  0  0  0  0
 13 14  1  0  0  0  0
 13 15  1  0  0  0  0
 13 31  1  0  0  0  0
 14 51  1  0  0  0  0
 14 52  1  0  0  0  0
 14 53  1  0  0  0  0
 15 16  2  0  0  0  0
 15 33  1  0  0  0  0
 16 17  1  0  0  0  0
 16 54  1  0  0  0  0
 17 18  1  0  0  0  0
 17 55  1  0  0  0  0
 17 56  1  0  0  0  0
 18 19  1  0  0  0  0
 18 31  1  0  0  0  0
 18 57  1  0  0  0  0
 19 20  1  0  0  0  0
 19 21  1  0  0  0  0
 19 28  1  0  0  0  0
 20 58  1  0  0  0  0
 20 59  1  0  0  0  0
 20 60  1  0  0  0  0
 21 22  1  0  0  0  0
 21 61  1  0  0  0  0
 21 62  1  0  0  0  0
 22 23  1  0  0  0  0
 22 63  1  0  0  0  0
 22 64  1  0  0  0  0
 23 24  1  0  0  0  0
 23 25  1  0  0  0  0
 23 65  1  0  0  0  0
 24 66  1  0  0  0  0
 25 26  1  0  0  0  0
 25 27  1  0  0  0  0
 25 28  1  0  0  0  0
 26 67  1  0  0  0  0
 26 68  1  0  0  0  0
 26 69  1  0  0  0  0
 27 70  1  0  0  0  0
 27 71  1  0  0  0  0
 27 72  1  0  0  0  0
 28 29  1  0  0  0  0
 28 73  1  0  0  0  0
 29 30  1  0  0  0  0
 29 74  1  0  0  0  0
 29 75  1  0  0  0  0
 30 31  1  0  0  0  0
 30 76  1  0  0  0  0
 30 77  1  0  0  0  0
 31 32  1  0  0  0  0
 32 78  1  0  0  0  0
 32 79  1  0  0  0  0
 32 80  1  0  0  0  0
 33 81  1  0  0  0  0
M  END
