
 OpenBabel03132514253D

 81 85  0  0  0  0  0  0  0  0999 V2000
    0.9395   -0.0454   -0.0654 C   0  0  0  0  0  0  0  0  0  0  0  0
    0.4328   -0.2782   -1.4795 C   0  0  0  0  0  0  0  0  0  0  0  0
    0.3266    1.0758   -2.1319 C   0  0  0  0  0  0  0  0  0  0  0  0
    0.9088    1.0102   -3.5345 C   0  0  0  0  0  0  0  0  0  0  0  0
    0.1791    1.2826   -4.5387 O   0  0  0  0  0  0  0  0  0  0  0  0
    2.2680    0.6446   -3.7226 O   0  0  0  0  0  0  0  0  0  0  0  0
    1.0641    2.0502   -1.3457 C   0  0  0  0  0  0  0  0  0  0  0  0
    1.7808    2.9612   -2.0221 C   0  0  0  0  0  0  0  0  0  0  0  0
    2.5729    4.0024   -1.2747 C   0  0  0  0  0  0  0  0  0  0  0  0
    2.4416    5.2704   -0.4468 C   0  0  0  0  0  0  0  0  0  0  0  0
    3.9758    4.1054   -1.8768 C   0  0  0  0  0  0  0  0  0  0  0  0
    4.9538    3.2983   -1.0250 C   0  0  0  0  0  0  0  0  0  0  0  0
    5.4786    2.1131   -1.8377 C   0  0  0  0  0  0  0  0  0  0  0  0
    6.2617    2.8188   -2.9327 C   0  0  0  0  0  0  0  0  0  0  0  0
    2.6337   -1.3733   -1.3605 C   0  0  0  0  0  0  0  0  0  0  0  0
    3.7510   -1.4825   -2.0360 C   0  0  0  0  0  0  0  0  0  0  0  0
    5.0713   -1.5155   -1.3100 C   0  0  0  0  0  0  0  0  0  0  0  0
    5.9375   -0.3415   -1.7730 C   0  0  0  0  0  0  0  0  0  0  0  0
    5.6476   -0.0429   -3.2349 C   0  0  0  0  0  0  0  0  0  0  0  0
    5.9676   -1.2729   -4.0687 C   0  0  0  0  0  0  0  0  0  0  0  0
    4.1705    0.3237   -3.3970 C   0  0  0  0  0  0  0  0  0  0  0  0
    3.8910    1.5123   -2.6543 C   0  0  0  0  0  0  0  0  0  0  0  0
    4.6354    2.6548   -3.0807 C   0  0  0  0  0  0  0  0  0  0  0  0
    4.2643    3.7807   -2.2990 O   0  0  0  0  0  0  0  0  0  0  0  0
    6.1313    2.3826   -2.9059 C   0  0  0  0  0  0  0  0  0  0  0  0
    6.4426    2.1630   -1.4344 C   0  0  0  0  0  0  0  0  0  0  0  0
    6.9279    3.5730   -3.4146 C   0  0  0  0  0  0  0  0  0  0  0  0
    6.5112    1.1322   -3.7051 C   0  0  0  0  0  0  0  0  0  0  0  0
    7.9802    0.8094   -3.4854 C   0  0  0  0  0  0  0  0  0  0  0  0
    4.3139    0.6681   -0.1776 C   0  0  0  0  0  0  0  0  0  0  0  0
    5.6173    0.8920   -0.9268 C   0  0  0  0  0  0  0  0  0  0  0  0
    6.7404    1.1282    0.0698 C   0  0  0  0  0  0  0  0  0  0  0  0
    1.3143   -1.3405   -2.0865 C   0  0  0  0  0  0  0  0  0  0  0  0
    0.5828   -0.8255    0.5742 H   0  0  0  0  0  0  0  0  0  0  0  0
    0.5828    0.8986    0.2903 H   0  0  0  0  0  0  0  0  0  0  0  0
    2.0095   -0.0454   -0.0654 H   0  0  0  0  0  0  0  0  0  0  0  0
   -0.5520   -0.6819   -1.5895 H   0  0  0  0  0  0  0  0  0  0  0  0
   -0.7018    1.3660   -2.1864 H   0  0  0  0  0  0  0  0  0  0  0  0
    2.6510    0.6015   -4.6454 H   0  0  0  0  0  0  0  0  0  0  0  0
    0.3160    2.6134   -0.8279 H   0  0  0  0  0  0  0  0  0  0  0  0
    1.7398    1.5114   -0.7148 H   0  0  0  0  0  0  0  0  0  0  0  0
    1.0334    3.5365   -2.5275 H   0  0  0  0  0  0  0  0  0  0  0  0
    2.4769    2.4192   -2.6276 H   0  0  0  0  0  0  0  0  0  0  0  0
    1.9640    6.0295   -1.0303 H   0  0  0  0  0  0  0  0  0  0  0  0
    1.8546    5.0682    0.4247 H   0  0  0  0  0  0  0  0  0  0  0  0
    3.4138    5.6061   -0.1519 H   0  0  0  0  0  0  0  0  0  0  0  0
    3.9661    3.7178   -2.8741 H   0  0  0  0  0  0  0  0  0  0  0  0
    4.2814    5.1306   -1.8966 H   0  0  0  0  0  0  0  0  0  0  0  0
    5.7728    3.9222   -0.7339 H   0  0  0  0  0  0  0  0  0  0  0  0
    4.4525    2.9377   -0.1512 H   0  0  0  0  0  0  0  0  0  0  0  0
    6.9386    2.1273   -3.3894 H   0  0  0  0  0  0  0  0  0  0  0  0
    5.5838    3.1944   -3.6705 H   0  0  0  0  0  0  0  0  0  0  0  0
    6.8139    3.6315   -2.5091 H   0  0  0  0  0  0  0  0  0  0  0  0
    3.7261   -1.5484   -3.1037 H   0  0  0  0  0  0  0  0  0  0  0  0
    5.5735   -2.4356   -1.5245 H   0  0  0  0  0  0  0  0  0  0  0  0
    4.9010   -1.4393   -0.2564 H   0  0  0  0  0  0  0  0  0  0  0  0
    6.9710   -0.5939   -1.6591 H   0  0  0  0  0  0  0  0  0  0  0  0
    7.0010   -1.5242   -3.9514 H   0  0  0  0  0  0  0  0  0  0  0  0
    5.3619   -2.0924   -3.7424 H   0  0  0  0  0  0  0  0  0  0  0  0
    5.7652   -1.0678   -5.0991 H   0  0  0  0  0  0  0  0  0  0  0  0
    3.9557    0.4906   -4.4318 H   0  0  0  0  0  0  0  0  0  0  0  0
    3.5620   -0.4769   -3.0313 H   0  0  0  0  0  0  0  0  0  0  0  0
    4.1768    1.3180   -1.6417 H   0  0  0  0  0  0  0  0  0  0  0  0
    2.8489    1.7337   -2.7542 H   0  0  0  0  0  0  0  0  0  0  0  0
    4.4268    2.8522   -4.1114 H   0  0  0  0  0  0  0  0  0  0  0  0
    4.4592    3.5965   -1.3356 H   0  0  0  0  0  0  0  0  0  0  0  0
    7.4886    1.9716   -1.3158 H   0  0  0  0  0  0  0  0  0  0  0  0
    6.1748    3.0374   -0.8788 H   0  0  0  0  0  0  0  0  0  0  0  0
    5.8835    1.3255   -1.0726 H   0  0  0  0  0  0  0  0  0  0  0  0
    6.7133    3.7290   -4.4511 H   0  0  0  0  0  0  0  0  0  0  0  0
    6.6578    4.4466   -2.8589 H   0  0  0  0  0  0  0  0  0  0  0  0
    7.9734    3.3813   -3.2917 H   0  0  0  0  0  0  0  0  0  0  0  0
    6.3418    1.3074   -4.7470 H   0  0  0  0  0  0  0  0  0  0  0  0
    8.5793    1.6332   -3.8132 H   0  0  0  0  0  0  0  0  0  0  0  0
    8.1549    0.6333   -2.4446 H   0  0  0  0  0  0  0  0  0  0  0  0
    4.4108   -0.1861    0.4594 H   0  0  0  0  0  0  0  0  0  0  0  0
    4.0899    1.5309    0.4143 H   0  0  0  0  0  0  0  0  0  0  0  0
    6.5164    1.9910    0.6617 H   0  0  0  0  0  0  0  0  0  0  0  0
    6.8373    0.2740    0.7069 H   0  0  0  0  0  0  0  0  0  0  0  0
    7.6579    1.2858   -0.4575 H   0  0  0  0  0  0  0  0  0  0  0  0
    1.0384   -2.2166   -2.6353 H   0  0  0  0  0  0  0  0  0  0  0  0
  1  2  1  0  0  0  0
  1 34  1  0  0  0  0
  1 35  1  0  0  0  0
  1 36  1  0  0  0  0
  2  3  1  0  0  0  0
  2 33  1  0  0  0  0
  2 37  1  0  0  0  0
  3  4  1  0  0  0  0
  3  7  1  0  0  0  0
  3 38  1  0  0  0  0
  4  5  2  0  0  0  0
  4  6  1  0  0  0  0
  6 39  1  0  0  0  0
  7  8  1  0  0  0  0
  7 40  1  0  0  0  0
  7 41  1  0  0  0  0
  8  9  1  0  0  0  0
  8 42  1  0  0  0  0
  8 43  1  0  0  0  0
  9 10  1  0  0  0  0
  9 11  1  0  0  0  0
  9 33  1  0  0  0  0
 10 44  1  0  0  0  0
 10 45  1  0  0  0  0
 10 46  1  0  0  0  0
 11 12  1  0  0  0  0
 11 47  1  0  0  0  0
 11 48  1  0  0  0  0
 12 13  1  0  0  0  0
 12 49  1  0  0  0  0
 12 50  1  0  0  0  0
 13 14  1  0  0  0  0
 13 15  1  0  0  0  0
 13 31  1  0  0  0  0
 14 51  1  0  0  0  0
 14 52  1  0  0  0  0
 14 53  1  0  0  0  0
 15 16  2  0  0  0  0
 15 33  1  0  0  0  0
 16 17  1  0  0  0  0
 16 54  1  0  0  0  0
 17 18  1  0  0  0  0
 17 55  1  0  0  0  0
 17 56  1  0  0  0  0
 18 19  1  0  0  0  0
 18 31  1  0  0  0  0
 18 57  1  0  0  0  0
 19 20  1  0  0  0  0
 19 21  1  0  0  0  0
 19 28  1  0  0  0  0
 20 58  1  0  0  0  0
 20 59  1  0  0  0  0
 20 60  1  0  0  0  0
 21 22  1  0  0  0  0
 21 61  1  0  0  0  0
 21 62  1  0  0  0  0
 22 23  1  0  0  0  0
 22 63  1  0  0  0  0
 22 64  1  0  0  0  0
 23 24  1  0  0  0  0
 23 25  1  0  0  0  0
 23 65  1  0  0  0  0
 24 66  1  0  0  0  0
 25 26  1  0  0  0  0
 25 27  1  0  0  0  0
 25 28  1  0  0  0  0
 26 67  1  0  0  0  0
 26 68  1  0  0  0  0
 26 69  1  0  0  0  0
 27 70  1  0  0  0  0
 27 71  1  0  0  0  0
 27 72  1  0  0  0  0
 28 29  1  0  0  0  0
 28 73  1  0  0  0  0
 29 30  1  0  0  0  0
 29 74  1  0  0  0  0
 29 75  1  0  0  0  0
 30 31  1  0  0  0  0
 30 76  1  0  0  0  0
 30 77  1  0  0  0  0
 31 32  1  0  0  0  0
 32 78  1  0  0  0  0
 32 79  1  0  0  0  0
 32 80  1  0  0  0  0
 33 81  1  0  0  0  0
M  END
