
 OpenBabel03132512093D

 82 86  0  0  0  0  0  0  0  0999 V2000
    0.9842    0.0985    0.0066 C   0  0  0  0  0  0  0  0  0  0  0  0
    0.4775    0.8430    1.2311 C   0  0  0  0  0  0  0  0  0  0  0  0
    0.6660   -0.0198    2.3850 C   0  0  0  0  0  0  0  0  0  0  0  0
   -0.4354   -0.5673    2.9220 C   0  0  0  0  0  0  0  0  0  0  0  0
   -0.3186   -1.4716    4.1216 C   0  0  0  0  0  0  0  0  0  0  0  0
    0.1301   -2.8544    4.5652 C   0  0  0  0  0  0  0  0  0  0  0  0
    0.6103   -3.6694    3.7164 O   0  0  0  0  0  0  0  0  0  0  0  0
    0.0128   -3.2357    5.9280 O   0  0  0  0  0  0  0  0  0  0  0  0
   -1.3745   -1.0823    5.1584 C   0  0  0  0  0  0  0  0  0  0  0  0
   -0.7319   -0.2063    6.2323 C   0  0  0  0  0  0  0  0  0  0  0  0
   -1.3259    1.2019    6.1631 C   0  0  0  0  0  0  0  0  0  0  0  0
   -2.7713    0.9413    6.5546 C   0  0  0  0  0  0  0  0  0  0  0  0
    1.0274    3.6461    3.1691 C   0  0  0  0  0  0  0  0  0  0  0  0
    0.0619    4.1720    3.8816 C   0  0  0  0  0  0  0  0  0  0  0  0
    0.2645    4.4305    5.3526 C   0  0  0  0  0  0  0  0  0  0  0  0
   -0.7677    3.6366    6.1570 C   0  0  0  0  0  0  0  0  0  0  0  0
   -2.0607    3.5366    5.3642 C   0  0  0  0  0  0  0  0  0  0  0  0
   -2.5885    4.9362    5.0941 C   0  0  0  0  0  0  0  0  0  0  0  0
   -1.7962    2.8211    4.0374 C   0  0  0  0  0  0  0  0  0  0  0  0
   -1.3515    1.4877    4.2962 C   0  0  0  0  0  0  0  0  0  0  0  0
   -2.2988    0.6839    5.0019 C   0  0  0  0  0  0  0  0  0  0  0  0
   -1.7706   -0.6218    5.1827 O   0  0  0  0  0  0  0  0  0  0  0  0
   -2.5836    1.3130    6.3678 C   0  0  0  0  0  0  0  0  0  0  0  0
   -1.3083    1.3400    7.1943 C   0  0  0  0  0  0  0  0  0  0  0  0
   -3.6358    0.4927    7.0961 C   0  0  0  0  0  0  0  0  0  0  0  0
   -3.0972    2.7420    6.1655 C   0  0  0  0  0  0  0  0  0  0  0  0
   -3.3188    3.4035    7.5159 C   0  0  0  0  0  0  0  0  0  0  0  0
    0.9583    1.9579    5.5217 C   0  0  0  0  0  0  0  0  0  0  0  0
   -0.2276    2.2321    6.4321 C   0  0  0  0  0  0  0  0  0  0  0  0
    0.2144    2.1344    7.8831 C   0  0  0  0  0  0  0  0  0  0  0  0
    0.8246    3.3879    1.6991 C   0  0  0  0  0  0  0  0  0  0  0  0
    1.3906    2.0363    1.3433 C   0  0  0  0  0  0  0  0  0  0  0  0
    1.8891    2.2298   -0.0796 C   0  0  0  0  0  0  0  0  0  0  0  0
    2.3560    1.7219    2.3360 O   0  0  0  0  0  0  0  0  0  0  0  0
    0.6276    0.5830   -0.8783 H   0  0  0  0  0  0  0  0  0  0  0  0
    0.6276   -0.9100    0.0294 H   0  0  0  0  0  0  0  0  0  0  0  0
    2.0542    0.0985    0.0066 H   0  0  0  0  0  0  0  0  0  0  0  0
   -0.5531    1.1241    1.1705 H   0  0  0  0  0  0  0  0  0  0  0  0
    1.2397   -0.8473    2.0229 H   0  0  0  0  0  0  0  0  0  0  0  0
    1.1430    0.5601    3.1474 H   0  0  0  0  0  0  0  0  0  0  0  0
   -0.7844   -1.2234    2.1523 H   0  0  0  0  0  0  0  0  0  0  0  0
   -1.0754    0.2417    3.2061 H   0  0  0  0  0  0  0  0  0  0  0  0
    0.3081   -4.1454    6.2199 H   0  0  0  0  0  0  0  0  0  0  0  0
   -2.1630   -0.5403    4.6795 H   0  0  0  0  0  0  0  0  0  0  0  0
   -1.7738   -1.9661    5.6104 H   0  0  0  0  0  0  0  0  0  0  0  0
   -0.9224   -0.6272    7.1974 H   0  0  0  0  0  0  0  0  0  0  0  0
    0.3242   -0.1566    6.0675 H   0  0  0  0  0  0  0  0  0  0  0  0
   -3.2309    1.8600    6.8542 H   0  0  0  0  0  0  0  0  0  0  0  0
   -3.2997    0.5344    5.7179 H   0  0  0  0  0  0  0  0  0  0  0  0
   -2.8008    0.2461    7.3675 H   0  0  0  0  0  0  0  0  0  0  0  0
   -0.8710    4.4180    3.4190 H   0  0  0  0  0  0  0  0  0  0  0  0
    0.1447    5.4751    5.5510 H   0  0  0  0  0  0  0  0  0  0  0  0
    1.2498    4.1244    5.6361 H   0  0  0  0  0  0  0  0  0  0  0  0
   -0.9565    4.1345    7.0851 H   0  0  0  0  0  0  0  0  0  0  0  0
   -2.7738    5.4330    6.0235 H   0  0  0  0  0  0  0  0  0  0  0  0
   -1.8641    5.4884    4.5327 H   0  0  0  0  0  0  0  0  0  0  0  0
   -3.4992    4.8724    4.5360 H   0  0  0  0  0  0  0  0  0  0  0  0
   -2.6978    2.7912    3.4620 H   0  0  0  0  0  0  0  0  0  0  0  0
   -1.0423    3.3489    3.4915 H   0  0  0  0  0  0  0  0  0  0  0  0
   -0.4869    1.5665    4.9216 H   0  0  0  0  0  0  0  0  0  0  0  0
   -1.1419    1.0155    3.3592 H   0  0  0  0  0  0  0  0  0  0  0  0
   -3.2071    0.6261    4.4393 H   0  0  0  0  0  0  0  0  0  0  0  0
   -0.9217   -0.5681    5.7085 H   0  0  0  0  0  0  0  0  0  0  0  0
   -1.5105    1.7816    8.1477 H   0  0  0  0  0  0  0  0  0  0  0  0
   -0.9516    0.3408    7.3325 H   0  0  0  0  0  0  0  0  0  0  0  0
   -0.5651    1.9168    6.6846 H   0  0  0  0  0  0  0  0  0  0  0  0
   -4.5361    0.4735    6.5183 H   0  0  0  0  0  0  0  0  0  0  0  0
   -3.2779   -0.5065    7.2321 H   0  0  0  0  0  0  0  0  0  0  0  0
   -3.8339    0.9336    8.0507 H   0  0  0  0  0  0  0  0  0  0  0  0
   -4.0230    2.7179    5.6297 H   0  0  0  0  0  0  0  0  0  0  0  0
   -4.0416    2.8444    8.0726 H   0  0  0  0  0  0  0  0  0  0  0  0
   -2.3955    3.4301    8.0559 H   0  0  0  0  0  0  0  0  0  0  0  0
    1.7265    2.6786    5.7098 H   0  0  0  0  0  0  0  0  0  0  0  0
    1.3360    0.9755    5.7142 H   0  0  0  0  0  0  0  0  0  0  0  0
    0.5921    1.1520    8.0755 H   0  0  0  0  0  0  0  0  0  0  0  0
    0.9826    2.8551    8.0713 H   0  0  0  0  0  0  0  0  0  0  0  0
   -0.6204    2.3274    8.5240 H   0  0  0  0  0  0  0  0  0  0  0  0
    0.6627    4.2401    1.0726 H   0  0  0  0  0  0  0  0  0  0  0  0
    2.5942    3.0343   -0.1042 H   0  0  0  0  0  0  0  0  0  0  0  0
    2.3615    1.3311   -0.4173 H   0  0  0  0  0  0  0  0  0  0  0  0
    1.0626    2.4602   -0.7188 H   0  0  0  0  0  0  0  0  0  0  0  0
    2.9861    2.4910    2.4436 H   0  0  0  0  0  0  0  0  0  0  0  0
  1  2  1  0  0  0  0
  1 35  1  0  0  0  0
  1 36  1  0  0  0  0
  1 37  1  0  0  0  0
  2  3  1  0  0  0  0
  2 32  1  0  0  0  0
  2 38  1  0  0  0  0
  3  4  1  0  0  0  0
  3 39  1  0  0  0  0
  3 40  1  0  0  0  0
  4  5  1  0  0  0  0
  4 41  1  0  0  0  0
  4 42  1  0  0  0  0
  5  6  1  0  0  0  0
  5  9  1  0  0  0  0
  5 31  1  0  0  0  0
  6  7  2  0  0  0  0
  6  8  1  0  0  0  0
  8 43  1  0  0  0  0
  9 10  1  0  0  0  0
  9 44  1  0  0  0  0
  9 45  1  0  0  0  0
 10 11  1  0  0  0  0
 10 46  1  0  0  0  0
 10 47  1  0  0  0  0
 11 12  1  0  0  0  0
 11 13  1  0  0  0  0
 11 29  1  0  0  0  0
 12 48  1  0  0  0  0
 12 49  1  0  0  0  0
 12 50  1  0  0  0  0
 13 14  2  0  0  0  0
 13 31  1  0  0  0  0
 14 15  1  0  0  0  0
 14 51  1  0  0  0  0
 15 16  1  0  0  0  0
 15 52  1  0  0  0  0
 15 53  1  0  0  0  0
 16 17  1  0  0  0  0
 16 29  1  0  0  0  0
 16 54  1  0  0  0  0
 17 18  1  0  0  0  0
 17 19  1  0  0  0  0
 17 26  1  0  0  0  0
 18 55  1  0  0  0  0
 18 56  1  0  0  0  0
 18 57  1  0  0  0  0
 19 20  1  0  0  0  0
 19 58  1  0  0  0  0
 19 59  1  0  0  0  0
 20 21  1  0  0  0  0
 20 60  1  0  0  0  0
 20 61  1  0  0  0  0
 21 22  1  0  0  0  0
 21 23  1  0  0  0  0
 21 62  1  0  0  0  0
 22 63  1  0  0  0  0
 23 24  1  0  0  0  0
 23 25  1  0  0  0  0
 23 26  1  0  0  0  0
 24 64  1  0  0  0  0
 24 65  1  0  0  0  0
 24 66  1  0  0  0  0
 25 67  1  0  0  0  0
 25 68  1  0  0  0  0
 25 69  1  0  0  0  0
 26 27  1  0  0  0  0
 26 70  1  0  0  0  0
 27 28  1  0  0  0  0
 27 71  1  0  0  0  0
 27 72  1  0  0  0  0
 28 29  1  0  0  0  0
 28 73  1  0  0  0  0
 28 74  1  0  0  0  0
 29 30  1  0  0  0  0
 30 75  1  0  0  0  0
 30 76  1  0  0  0  0
 30 77  1  0  0  0  0
 31 32  1  0  0  0  0
 31 78  1  0  0  0  0
 32 33  1  0  0  0  0
 32 34  1  0  0  0  0
 33 79  1  0  0  0  0
 33 80  1  0  0  0  0
 33 81  1  0  0  0  0
 34 82  1  0  0  0  0
M  END
