REMARK  Name = 
REMARK  11 active torsions:
REMARK  status: ('A' for Active; 'I' for Inactive)
REMARK    1  A    between atoms: C_1  and  C_2
REMARK    2  A    between atoms: C_5  and  C_6
REMARK    3  A    between atoms: C_6  and  O_8
REMARK    4  A    between atoms: C_11  and  C_12
REMARK    5  A    between atoms: C_17  and  C_18
REMARK    6  A    between atoms: C_21  and  O_22
REMARK    7  A    between atoms: C_23  and  C_24
REMARK    8  A    between atoms: C_23  and  C_25
REMARK    9  A    between atoms: C_29  and  C_30
REMARK   10  A    between atoms: C_32  and  C_33
REMARK   11  A    between atoms: C_32  and  O_34
REMARK                            x       y       z     vdW  Elec       q    Type
REMARK                         _______ _______ _______ _____ _____    ______ ____
ROOT
ATOM      1  C   UNL     1       1.065  -0.035  -0.067  0.00  0.00    +0.000 C 
ATOM      2  C   UNL     1       0.559  -0.600   1.250  0.00  0.00    +0.000 C 
ATOM      3  C   UNL     1       1.416  -1.737   1.536  0.00  0.00    +0.000 C 
ATOM      4  C   UNL     1       0.897  -2.958   1.330  0.00  0.00    +0.000 C 
ATOM      5  C   UNL     1       1.727  -4.185   1.607  0.00  0.00    +0.000 C 
ATOM      6  C   UNL     1       0.892  -5.198   2.394  0.00  0.00    +0.000 C 
ATOM      7  C   UNL     1       1.238  -5.095   3.878  0.00  0.00    +0.000 C 
ATOM      8  C   UNL     1       0.021  -4.582   4.650  0.00  0.00    +0.000 C 
ATOM      9  C   UNL     1      -0.962  -5.726   4.462  0.00  0.00    +0.000 C 
ATOM     10  C   UNL     1       0.062  -0.057   4.623  0.00  0.00    +0.000 C 
ATOM     11  C   UNL     1      -0.841  -0.735   5.288  0.00  0.00    +0.000 C 
ATOM     12  C   UNL     1      -0.460  -1.459   6.554  0.00  0.00    +0.000 C 
ATOM     13  C   UNL     1      -0.736  -2.955   6.388  0.00  0.00    +0.000 C 
ATOM     14  C   UNL     1      -1.947  -3.152   5.492  0.00  0.00    +0.000 C 
ATOM     15  C   UNL     1      -3.148  -2.478   6.136  0.00  0.00    +0.000 C 
ATOM     16  C   UNL     1      -1.684  -2.529   4.119  0.00  0.00    +0.000 C 
ATOM     17  C   UNL     1      -0.591  -3.203   3.492  0.00  0.00    +0.000 C 
ATOM     18  C   UNL     1      -0.818  -4.595   3.263  0.00  0.00    +0.000 C 
ATOM     19  C   UNL     1      -1.047  -5.301   4.601  0.00  0.00    +0.000 C 
ATOM     20  C   UNL     1       0.201  -5.183   5.461  0.00  0.00    +0.000 C 
ATOM     21  C   UNL     1      -1.349  -6.771   4.356  0.00  0.00    +0.000 C 
ATOM     22  C   UNL     1      -2.232  -4.647   5.319  0.00  0.00    +0.000 C 
ATOM     23  C   UNL     1      -2.427  -5.293   6.681  0.00  0.00    +0.000 C 
ATOM     24  C   UNL     1       1.397  -2.571   5.161  0.00  0.00    +0.000 C 
ATOM     25  C   UNL     1       0.482  -3.630   5.755  0.00  0.00    +0.000 C 
ATOM     26  C   UNL     1       1.237  -4.413   6.817  0.00  0.00    +0.000 C 
ATOM     27  C   UNL     1      -0.319   0.666   3.358  0.00  0.00    +0.000 C 
ATOM     28  C   UNL     1       0.748   0.450   2.314  0.00  0.00    +0.000 C 
ATOM     29  C   UNL     1       0.736   1.751   1.528  0.00  0.00    +0.000 C 
ENDROOT
BRANCH   5  30
ATOM     30  C   UNL     1       2.897  -5.006   1.090  0.00  0.00    +0.000 C 
ATOM     31  O   UNL     1       3.509  -4.647   0.035  0.00  0.00    +0.000 OA
BRANCH  30  32
ATOM     32  O   UNL     1       3.307  -6.174   1.785  0.00  0.00    +0.000 OA
ATOM     33  H   UNL     1       4.077  -6.714   1.445  0.00  0.00    +0.000 HD
ENDBRANCH  30  32
ENDBRANCH   5  30
BRANCH  18  34
ATOM     34  O   UNL     1       0.313  -5.160   2.616  0.00  0.00    +0.000 OA
ATOM     35  H   UNL     1       1.120  -5.045   3.195  0.00  0.00    +0.000 HD
ENDBRANCH  18  34
BRANCH  28  36
ATOM     36  O   UNL     1       1.940   0.119   3.010  0.00  0.00    +0.000 OA
ATOM     37  H   UNL     1       2.105   0.794   3.729  0.00  0.00    +0.000 HD
ENDBRANCH  28  36
TORSDOF 4
