REMARK  Name = 
REMARK  11 active torsions:
REMARK  status: ('A' for Active; 'I' for Inactive)
REMARK    1  A    between atoms: C_1  and  C_2
REMARK    2  A    between atoms: C_5  and  C_6
REMARK    3  A    between atoms: C_6  and  O_8
REMARK    4  A    between atoms: C_11  and  C_12
REMARK    5  A    between atoms: C_17  and  C_18
REMARK    6  A    between atoms: C_21  and  O_22
REMARK    7  A    between atoms: C_23  and  C_24
REMARK    8  A    between atoms: C_23  and  C_25
REMARK    9  A    between atoms: C_29  and  C_30
REMARK   10  A    between atoms: C_32  and  C_33
REMARK   11  A    between atoms: C_32  and  O_34
REMARK                            x       y       z     vdW  Elec       q    Type
REMARK                         _______ _______ _______ _____ _____    ______ ____
ROOT
ATOM      1  C   UNL     1       0.984   0.099   0.007  0.00  0.00    +0.000 C 
ATOM      2  C   UNL     1       0.477   0.843   1.231  0.00  0.00    +0.000 C 
ATOM      3  C   UNL     1       0.666  -0.020   2.385  0.00  0.00    +0.000 C 
ATOM      4  C   UNL     1      -0.435  -0.567   2.922  0.00  0.00    +0.000 C 
ATOM      5  C   UNL     1      -0.319  -1.472   4.122  0.00  0.00    +0.000 C 
ATOM      6  C   UNL     1      -1.375  -1.082   5.158  0.00  0.00    +0.000 C 
ATOM      7  C   UNL     1      -0.732  -0.206   6.232  0.00  0.00    +0.000 C 
ATOM      8  C   UNL     1      -1.326   1.202   6.163  0.00  0.00    +0.000 C 
ATOM      9  C   UNL     1      -2.771   0.941   6.555  0.00  0.00    +0.000 C 
ATOM     10  C   UNL     1       1.027   3.646   3.169  0.00  0.00    +0.000 C 
ATOM     11  C   UNL     1       0.062   4.172   3.882  0.00  0.00    +0.000 C 
ATOM     12  C   UNL     1       0.265   4.431   5.353  0.00  0.00    +0.000 C 
ATOM     13  C   UNL     1      -0.768   3.637   6.157  0.00  0.00    +0.000 C 
ATOM     14  C   UNL     1      -2.061   3.537   5.364  0.00  0.00    +0.000 C 
ATOM     15  C   UNL     1      -2.588   4.936   5.094  0.00  0.00    +0.000 C 
ATOM     16  C   UNL     1      -1.796   2.821   4.037  0.00  0.00    +0.000 C 
ATOM     17  C   UNL     1      -1.351   1.488   4.296  0.00  0.00    +0.000 C 
ATOM     18  C   UNL     1      -2.299   0.684   5.002  0.00  0.00    +0.000 C 
ATOM     19  C   UNL     1      -2.584   1.313   6.368  0.00  0.00    +0.000 C 
ATOM     20  C   UNL     1      -1.308   1.340   7.194  0.00  0.00    +0.000 C 
ATOM     21  C   UNL     1      -3.636   0.493   7.096  0.00  0.00    +0.000 C 
ATOM     22  C   UNL     1      -3.097   2.742   6.165  0.00  0.00    +0.000 C 
ATOM     23  C   UNL     1      -3.319   3.404   7.516  0.00  0.00    +0.000 C 
ATOM     24  C   UNL     1       0.958   1.958   5.522  0.00  0.00    +0.000 C 
ATOM     25  C   UNL     1      -0.228   2.232   6.432  0.00  0.00    +0.000 C 
ATOM     26  C   UNL     1       0.214   2.134   7.883  0.00  0.00    +0.000 C 
ATOM     27  C   UNL     1       0.825   3.388   1.699  0.00  0.00    +0.000 C 
ATOM     28  C   UNL     1       1.391   2.036   1.343  0.00  0.00    +0.000 C 
ATOM     29  C   UNL     1       1.889   2.230  -0.080  0.00  0.00    +0.000 C 
ENDROOT
BRANCH   5  30
ATOM     30  C   UNL     1       0.130  -2.854   4.565  0.00  0.00    +0.000 C 
ATOM     31  O   UNL     1       0.610  -3.669   3.716  0.00  0.00    +0.000 OA
BRANCH  30  32
ATOM     32  O   UNL     1       0.013  -3.236   5.928  0.00  0.00    +0.000 OA
ATOM     33  H   UNL     1       0.308  -4.145   6.220  0.00  0.00    +0.000 HD
ENDBRANCH  30  32
ENDBRANCH   5  30
BRANCH  18  34
ATOM     34  O   UNL     1      -1.771  -0.622   5.183  0.00  0.00    +0.000 OA
ATOM     35  H   UNL     1      -0.922  -0.568   5.708  0.00  0.00    +0.000 HD
ENDBRANCH  18  34
BRANCH  28  36
ATOM     36  O   UNL     1       2.356   1.722   2.336  0.00  0.00    +0.000 OA
ATOM     37  H   UNL     1       2.986   2.491   2.444  0.00  0.00    +0.000 HD
ENDBRANCH  28  36
TORSDOF 4
