REMARK  Name = 
REMARK  5 active torsions:
REMARK  status: ('A' for Active; 'I' for Inactive)
REMARK    1  A    between atoms: C_1  and  O_2
REMARK    2  A    between atoms: O_2  and  C_3
REMARK    3  A    between atoms: C_8  and  O_9
REMARK    4  A    between atoms: O_9  and  C_10
REMARK    5  A    between atoms: N_20  and  C_21
REMARK                            x       y       z     vdW  Elec       q    Type
REMARK                         _______ _______ _______ _____ _____    ______ ____
ROOT
ATOM      1  C   UNL     1       0.800   0.839  -2.309  0.00  0.00    +0.000 A 
ATOM      2  C   UNL     1       2.088   1.320  -2.457  0.00  0.00    +0.000 A 
ATOM      3  C   UNL     1       2.421   2.096  -3.548  0.00  0.00    +0.000 A 
ATOM      4  C   UNL     1       1.460   2.402  -4.509  0.00  0.00    +0.000 A 
ATOM      5  C   UNL     1       0.169   1.912  -4.350  0.00  0.00    +0.000 A 
ATOM      6  C   UNL     1      -0.161   1.137  -3.259  0.00  0.00    +0.000 A 
ATOM      7  C   UNL     1      -0.618   2.408  -5.537  0.00  0.00    +0.000 C 
ATOM      8  C   UNL     1      -1.754   3.285  -5.094  0.00  0.00    +0.000 C 
ATOM      9  C   UNL     1      -3.020   2.846  -5.142  0.00  0.00    +0.000 C 
ATOM     10  C   UNL     1      -3.336   1.623  -5.590  0.00  0.00    +0.000 C 
ATOM     11  O   UNL     1      -4.469   1.117  -5.315  0.00  0.00    +0.000 OA
ATOM     12  C   UNL     1      -2.451   0.932  -6.329  0.00  0.00    +0.000 C 
ATOM     13  C   UNL     1      -1.133   1.254  -6.347  0.00  0.00    +0.000 C 
ATOM     14  C   UNL     1       0.378   3.210  -6.340  0.00  0.00    +0.000 C 
ATOM     15  C   UNL     1       1.549   3.155  -5.681  0.00  0.00    +0.000 C 
ATOM     16  N   UNL     1       2.532   2.507  -6.561  0.00  0.00    +0.000 NA
ATOM     17  C   UNL     1       3.833   2.444  -5.879  0.00  0.00    +0.000 C 
ATOM     18  C   UNL     1       2.080   1.146  -6.881  0.00  0.00    +0.000 C 
ATOM     19  C   UNL     1       3.840   2.619  -3.701  0.00  0.00    +0.000 C 
ENDROOT
BRANCH   1  21
ATOM     20  C   UNL     1       0.930   0.068   0.023  0.00  0.00    +0.000 C 
ATOM     21  O   UNL     1       0.457  -0.104  -1.305  0.00  0.00    +0.000 OA
ENDBRANCH   1  21
BRANCH   6  22
ATOM     22  O   UNL     1      -1.484   0.645  -3.111  0.00  0.00    +0.000 OA
ATOM     23  C   UNL     1      -1.823  -0.154  -1.986  0.00  0.00    +0.000 C 
ENDBRANCH   6  22
TORSDOF 2
