REMARK  Name = 
REMARK  18 active torsions:
REMARK  status: ('A' for Active; 'I' for Inactive)
REMARK    1  A    between atoms: C_1  and  C_2
REMARK    2  A    between atoms: C_2  and  C_3
REMARK    3  A    between atoms: C_4  and  C_5
REMARK    4  A    between atoms: C_5  and  C_6
REMARK    5  A    between atoms: C_6  and  O_7
REMARK    6  A    between atoms: C_6  and  C_8
REMARK    7  A    between atoms: C_9  and  C_10
REMARK    8  A    between atoms: C_11  and  C_12
REMARK    9  A    between atoms: C_13  and  C_14
REMARK   10  A    between atoms: C_14  and  O_15
REMARK   11  A    between atoms: C_14  and  C_16
REMARK   12  A    between atoms: C_16  and  C_17
REMARK   13  A    between atoms: C_18  and  C_19
REMARK   14  A    between atoms: C_19  and  C_20
REMARK   15  A    between atoms: C_21  and  C_22
REMARK   16  A    between atoms: C_22  and  C_23
REMARK   17  A    between atoms: C_23  and  C_24
REMARK   18  A    between atoms: C_24  and  O_26
REMARK                            x       y       z     vdW  Elec       q    Type
REMARK                         _______ _______ _______ _____ _____    ______ ____
ROOT
ATOM      1  C   UNL     1       4.557   2.471  12.515  0.00  0.00    +0.000 C 
ENDROOT
BRANCH   1   2
ATOM      2  O   UNL     1       5.977   2.471  12.515  0.00  0.00    +0.000 OA
ATOM      3  H   UNL     1       6.310   1.680  12.001  0.00  0.00    +0.000 HD
ENDBRANCH   1   2
BRANCH   1   5
ATOM      4  C   UNL     1       3.268   1.551  10.586  0.00  0.00    +0.000 C 
ATOM      5  C   UNL     1       4.050   2.546  11.084  0.00  0.00    +0.000 C 
BRANCH   4   7
ATOM      6  C   UNL     1       1.979   0.631   8.657  0.00  0.00    +0.000 C 
ATOM      7  C   UNL     1       2.761   1.626   9.155  0.00  0.00    +0.000 C 
BRANCH   6   9
ATOM      8  C   UNL     1       0.691  -0.289   6.728  0.00  0.00    +0.000 C 
ATOM      9  C   UNL     1       1.473   0.706   7.226  0.00  0.00    +0.000 C 
BRANCH   8  10
ATOM     10  C   UNL     1       0.184  -0.214   5.297  0.00  0.00    +0.000 C 
BRANCH  10  11
ATOM     11  O   UNL     1      -1.236  -0.214   5.297  0.00  0.00    +0.000 OA
ATOM     12  H   UNL     1      -1.569  -0.164   4.355  0.00  0.00    +0.000 HD
ENDBRANCH  10  11
BRANCH  10  13
ATOM     13  C   UNL     1       0.691  -1.415   4.516  0.00  0.00    +0.000 C 
BRANCH  13  15
ATOM     14  C   UNL     1       1.068  -1.285   2.052  0.00  0.00    +0.000 C 
ATOM     15  C   UNL     1       0.184  -1.340   3.085  0.00  0.00    +0.000 C 
BRANCH  14  17
ATOM     16  C   UNL     1       1.068   0.067  -0.029  0.00  0.00    +0.000 C 
ATOM     17  C   UNL     1       0.561  -1.210   0.621  0.00  0.00    +0.000 C 
ENDBRANCH  14  17
ENDBRANCH  13  15
ENDBRANCH  10  13
ENDBRANCH   8  10
ENDBRANCH   6   9
ENDBRANCH   4   7
ENDBRANCH   1   5
BRANCH   1  18
ATOM     18  C   UNL     1       4.050   3.672  13.296  0.00  0.00    +0.000 C 
BRANCH  18  19
ATOM     19  C   UNL     1       2.530   3.673  13.296  0.00  0.00    +0.000 C 
ATOM     20  C   UNL     1       1.850   3.611  14.473  0.00  0.00    +0.000 C 
BRANCH  20  21
ATOM     21  C   UNL     1       0.330   3.611  14.473  0.00  0.00    +0.000 C 
BRANCH  21  22
ATOM     22  C   UNL     1      -0.177   2.333  15.123  0.00  0.00    +0.000 C 
ATOM     23  C   UNL     1      -0.959   2.400  16.234  0.00  0.00    +0.000 C 
BRANCH  23  24
ATOM     24  C   UNL     1      -1.465   1.123  16.884  0.00  0.00    +0.000 C 
BRANCH  24  25
ATOM     25  C   UNL     1      -0.959   1.047  18.315  0.00  0.00    +0.000 C 
BRANCH  25  26
ATOM     26  C   UNL     1      -1.465   2.249  19.096  0.00  0.00    +0.000 C 
ATOM     27  O   UNL     1      -2.196   2.078  20.122  0.00  0.00    +0.000 OA
BRANCH  26  28
ATOM     28  O   UNL     1      -1.122   3.562  18.680  0.00  0.00    +0.000 OA
ATOM     29  H   UNL     1      -1.456   4.353  19.193  0.00  0.00    +0.000 HD
ENDBRANCH  26  28
ENDBRANCH  25  26
ENDBRANCH  24  25
ENDBRANCH  23  24
ENDBRANCH  21  22
ENDBRANCH  20  21
ENDBRANCH  18  19
ENDBRANCH   1  18
TORSDOF 17
