REMARK  Name = 
REMARK  4 active torsions:
REMARK  status: ('A' for Active; 'I' for Inactive)
REMARK    1  A    between atoms: C_1  and  O_2
REMARK    2  A    between atoms: O_2  and  C_3
REMARK    3  A    between atoms: C_12  and  O_13
REMARK    4  A    between atoms: O_13  and  C_14
REMARK                            x       y       z     vdW  Elec       q    Type
REMARK                         _______ _______ _______ _____ _____    ______ ____
ROOT
ATOM      1  C   UNL     1       0.967   0.098   2.438  0.00  0.00    +0.000 A 
ATOM      2  C   UNL     1       2.263  -0.266   2.650  0.00  0.00    +0.000 A 
ATOM      3  C   UNL     1       2.614  -0.953   3.808  0.00  0.00    +0.000 A 
ATOM      4  C   UNL     1       3.929  -1.405   4.093  0.00  0.00    +0.000 A 
ATOM      5  C   UNL     1       4.234  -2.092   5.219  0.00  0.00    +0.000 A 
ATOM      6  N   UNL     1       3.231  -2.359   6.124  0.00  0.00    +0.000 N 
ATOM      7  C   UNL     1       1.979  -1.932   5.931  0.00  0.00    +0.000 A 
ATOM      8  C   UNL     1       1.612  -1.219   4.780  0.00  0.00    +0.000 A 
ATOM      9  C   UNL     1       0.280  -0.798   4.555  0.00  0.00    +0.000 A 
ATOM     10  C   UNL     1      -0.032  -0.154   3.387  0.00  0.00    +0.000 A 
ATOM     11  C   UNL     1       3.498  -3.182   7.325  0.00  0.00    +0.000 C 
ATOM     12  C   UNL     1       4.827  -2.982   7.870  0.00  0.00    +0.000 C 
ATOM     13  C   UNL     1       5.899  -3.033   6.812  0.00  0.00    +0.000 A 
ATOM     14  C   UNL     1       7.179  -3.448   7.141  0.00  0.00    +0.000 A 
ATOM     15  C   UNL     1       8.138  -3.368   6.159  0.00  0.00    +0.000 A 
ATOM     16  C   UNL     1       7.863  -2.896   4.901  0.00  0.00    +0.000 A 
ATOM     17  C   UNL     1       6.606  -2.505   4.548  0.00  0.00    +0.000 A 
ATOM     18  C   UNL     1       5.603  -2.576   5.543  0.00  0.00    +0.000 A 
ATOM     19  O   UNL     1       8.973  -2.943   4.128  0.00  0.00    +0.000 OA
ATOM     20  C   UNL     1      10.039  -3.306   4.995  0.00  0.00    +0.000 C 
ATOM     21  O   UNL     1       9.451  -3.732   6.247  0.00  0.00    +0.000 OA
ENDROOT
BRANCH   1  23
ATOM     22  C   UNL     1       1.097  -0.018  -0.015  0.00  0.00    +0.000 C 
ATOM     23  O   UNL     1       0.624   0.619   1.163  0.00  0.00    +0.000 OA
ENDBRANCH   1  23
BRANCH  10  24
ATOM     24  O   UNL     1      -1.368   0.259   3.139  0.00  0.00    +0.000 OA
ATOM     25  C   UNL     1      -1.691   0.927   1.928  0.00  0.00    +0.000 C 
ENDBRANCH  10  24
TORSDOF 2
