
 OpenBabel03132512083D

 43 47  0  0  0  0  0  0  0  0999 V2000
    1.0972   -0.0177   -0.0153 C   0  0  0  0  0  0  0  0  0  0  0  0
    0.6239    0.6188    1.1625 O   0  0  0  0  0  0  0  0  0  0  0  0
    0.9669    0.0975    2.4381 C   0  0  0  0  0  0  0  0  0  0  0  0
    2.2627   -0.2662    2.6502 C   0  0  0  0  0  0  0  0  0  0  0  0
    2.6144   -0.9527    3.8080 C   0  0  0  0  0  0  0  0  0  0  0  0
    3.9291   -1.4050    4.0931 C   0  0  0  0  0  0  0  0  0  0  0  0
    4.2338   -2.0917    5.2193 C   0  0  0  0  0  0  0  0  0  0  0  0
    3.2307   -2.3594    6.1241 N   0  3  0  0  0  0  0  0  0  0  0  0
    1.9788   -1.9322    5.9313 C   0  0  0  0  0  0  0  0  0  0  0  0
    1.6123   -1.2190    4.7797 C   0  0  0  0  0  0  0  0  0  0  0  0
    0.2801   -0.7979    4.5546 C   0  0  0  0  0  0  0  0  0  0  0  0
   -0.0321   -0.1539    3.3871 C   0  0  0  0  0  0  0  0  0  0  0  0
   -1.3679    0.2589    3.1387 O   0  0  0  0  0  0  0  0  0  0  0  0
   -1.6911    0.9267    1.9279 C   0  0  0  0  0  0  0  0  0  0  0  0
    3.4979   -3.1822    7.3254 C   0  0  0  0  0  0  0  0  0  0  0  0
    4.8270   -2.9824    7.8698 C   0  0  0  0  0  0  0  0  0  0  0  0
    5.8985   -3.0329    6.8121 C   0  0  0  0  0  0  0  0  0  0  0  0
    7.1792   -3.4478    7.1407 C   0  0  0  0  0  0  0  0  0  0  0  0
    8.1383   -3.3684    6.1591 C   0  0  0  0  0  0  0  0  0  0  0  0
    7.8628   -2.8964    4.9013 C   0  0  0  0  0  0  0  0  0  0  0  0
    6.6058   -2.5047    4.5484 C   0  0  0  0  0  0  0  0  0  0  0  0
    5.6031   -2.5757    5.5431 C   0  0  0  0  0  0  0  0  0  0  0  0
    8.9728   -2.9433    4.1278 O   0  0  0  0  0  0  0  0  0  0  0  0
   10.0386   -3.3056    4.9946 C   0  0  0  0  0  0  0  0  0  0  0  0
    9.4514   -3.7320    6.2475 O   0  0  0  0  0  0  0  0  0  0  0  0
    0.7406    0.5112   -0.8744 H   0  0  0  0  0  0  0  0  0  0  0  0
    0.7406   -1.0261   -0.0438 H   0  0  0  0  0  0  0  0  0  0  0  0
    2.1672   -0.0177   -0.0153 H   0  0  0  0  0  0  0  0  0  0  0  0
    3.0112   -0.0234    1.9251 H   0  0  0  0  0  0  0  0  0  0  0  0
    4.7090   -1.1952    3.3912 H   0  0  0  0  0  0  0  0  0  0  0  0
    1.2371   -2.1394    6.6741 H   0  0  0  0  0  0  0  0  0  0  0  0
   -0.4759   -0.9810    5.2894 H   0  0  0  0  0  0  0  0  0  0  0  0
   -1.1236    1.8311    1.8569 H   0  0  0  0  0  0  0  0  0  0  0  0
   -1.4578    0.2931    1.0978 H   0  0  0  0  0  0  0  0  0  0  0  0
   -2.7355    1.1592    1.9166 H   0  0  0  0  0  0  0  0  0  0  0  0
    2.7978   -2.8840    8.0776 H   0  0  0  0  0  0  0  0  0  0  0  0
    3.3896   -4.2137    7.0622 H   0  0  0  0  0  0  0  0  0  0  0  0
    4.8535   -2.0087    8.3124 H   0  0  0  0  0  0  0  0  0  0  0  0
    5.0209   -3.7486    8.5911 H   0  0  0  0  0  0  0  0  0  0  0  0
    7.4120   -3.8149    8.1185 H   0  0  0  0  0  0  0  0  0  0  0  0
    6.3869   -2.1580    3.5601 H   0  0  0  0  0  0  0  0  0  0  0  0
   10.6984   -2.4775    5.1489 H   0  0  0  0  0  0  0  0  0  0  0  0
   10.6039   -4.1057    4.5645 H   0  0  0  0  0  0  0  0  0  0  0  0
  1  2  1  0  0  0  0
  1 26  1  0  0  0  0
  1 27  1  0  0  0  0
  1 28  1  0  0  0  0
  2  3  1  0  0  0  0
  3  4  1  0  0  0  0
  3 12  2  0  0  0  0
  4  5  2  0  0  0  0
  4 29  1  0  0  0  0
  5  6  1  0  0  0  0
  5 10  1  0  0  0  0
  6  7  2  0  0  0  0
  6 30  1  0  0  0  0
  7  8  1  0  0  0  0
  7 22  1  0  0  0  0
  8  9  2  0  0  0  0
  8 15  1  0  0  0  0
  9 10  1  0  0  0  0
  9 31  1  0  0  0  0
 10 11  2  0  0  0  0
 11 12  1  0  0  0  0
 11 32  1  0  0  0  0
 12 13  1  0  0  0  0
 13 14  1  0  0  0  0
 14 33  1  0  0  0  0
 14 34  1  0  0  0  0
 14 35  1  0  0  0  0
 15 16  1  0  0  0  0
 15 36  1  0  0  0  0
 15 37  1  0  0  0  0
 16 17  1  0  0  0  0
 16 38  1  0  0  0  0
 16 39  1  0  0  0  0
 17 18  1  0  0  0  0
 17 22  2  0  0  0  0
 18 19  2  0  0  0  0
 18 40  1  0  0  0  0
 19 20  1  0  0  0  0
 19 25  1  0  0  0  0
 20 21  2  0  0  0  0
 20 23  1  0  0  0  0
 21 22  1  0  0  0  0
 21 41  1  0  0  0  0
 23 24  1  0  0  0  0
 24 25  1  0  0  0  0
 24 42  1  0  0  0  0
 24 43  1  0  0  0  0
M  CHG  1   8   1
M  END
