REMARK  Name = 
REMARK  4 active torsions:
REMARK  status: ('A' for Active; 'I' for Inactive)
REMARK    1  A    between atoms: C_1  and  O_2
REMARK    2  A    between atoms: O_2  and  C_3
REMARK    3  A    between atoms: C_12  and  O_13
REMARK    4  A    between atoms: O_13  and  C_14
REMARK                            x       y       z     vdW  Elec       q    Type
REMARK                         _______ _______ _______ _____ _____    ______ ____
ROOT
ATOM      1  C   UNL     1       0.778   2.350  -0.737  0.00  0.00    +0.000 A 
ATOM      2  C   UNL     1       2.060   2.708  -0.444  0.00  0.00    +0.000 A 
ATOM      3  C   UNL     1       2.379   4.045  -0.228  0.00  0.00    +0.000 A 
ATOM      4  C   UNL     1       3.676   4.504   0.121  0.00  0.00    +0.000 A 
ATOM      5  C   UNL     1       3.948   5.811   0.348  0.00  0.00    +0.000 A 
ATOM      6  N   UNL     1       2.929   6.730   0.233  0.00  0.00    +0.000 N 
ATOM      7  C   UNL     1       1.694   6.367  -0.125  0.00  0.00    +0.000 A 
ATOM      8  C   UNL     1       1.361   5.026  -0.369  0.00  0.00    +0.000 A 
ATOM      9  C   UNL     1       0.044   4.634  -0.711  0.00  0.00    +0.000 A 
ATOM     10  C   UNL     1      -0.236   3.305  -0.883  0.00  0.00    +0.000 A 
ATOM     11  C   UNL     1       3.159   8.156   0.557  0.00  0.00    +0.000 C 
ATOM     12  C   UNL     1       4.489   8.614   0.205  0.00  0.00    +0.000 C 
ATOM     13  C   UNL     1       5.568   7.672   0.674  0.00  0.00    +0.000 A 
ATOM     14  C   UNL     1       6.832   8.157   0.971  0.00  0.00    +0.000 A 
ATOM     15  C   UNL     1       7.801   7.236   1.288  0.00  0.00    +0.000 A 
ATOM     16  C   UNL     1       7.552   5.887   1.310  0.00  0.00    +0.000 A 
ATOM     17  C   UNL     1       6.312   5.389   1.044  0.00  0.00    +0.000 A 
ATOM     18  C   UNL     1       5.298   6.319   0.713  0.00  0.00    +0.000 A 
ATOM     19  O   UNL     1       8.667   5.209   1.670  0.00  0.00    +0.000 OA
ATOM     20  C   UNL     1       9.713   6.170   1.713  0.00  0.00    +0.000 C 
ATOM     21  O   UNL     1       9.101   7.479   1.627  0.00  0.00    +0.000 OA
ENDROOT
BRANCH   1  23
ATOM     22  C   UNL     1       0.909   0.019   0.036  0.00  0.00    +0.000 C 
ATOM     23  O   UNL     1       0.435   0.982  -0.895  0.00  0.00    +0.000 OA
ENDBRANCH   1  23
BRANCH  10  24
ATOM     24  O   UNL     1      -1.556   2.894  -1.210  0.00  0.00    +0.000 OA
ATOM     25  C   UNL     1      -1.847   1.516  -1.388  0.00  0.00    +0.000 C 
ENDBRANCH  10  24
TORSDOF 2
