REMARK  Name = 
REMARK  7 active torsions:
REMARK  status: ('A' for Active; 'I' for Inactive)
REMARK    1  A    between atoms: C_1  and  O_2
REMARK    2  A    between atoms: O_2  and  C_3
REMARK    3  A    between atoms: C_5  and  C_6
REMARK    4  A    between atoms: C_7  and  C_8
REMARK    5  A    between atoms: C_11  and  O_12
REMARK    6  A    between atoms: C_16  and  O_17
REMARK    7  A    between atoms: O_17  and  C_18
REMARK                            x       y       z     vdW  Elec       q    Type
REMARK                         _______ _______ _______ _____ _____    ______ ____
ROOT
ATOM      1  C   UNL     1       0.808   1.605  -1.803  0.00  0.00    +0.000 A 
ATOM      2  C   UNL     1      -0.117   2.481  -2.346  0.00  0.00    +0.000 A 
ATOM      3  C   UNL     1       0.462   3.602  -2.986  0.00  0.00    +0.000 A 
ATOM      4  C   UNL     1       1.704   4.011  -2.803  0.00  0.00    +0.000 A 
ATOM      5  C   UNL     1       2.553   3.124  -2.199  0.00  0.00    +0.000 A 
ATOM      6  C   UNL     1       2.083   1.948  -1.665  0.00  0.00    +0.000 A 
ENDROOT
BRANCH   1   8
ATOM      7  C   UNL     1       0.938  -0.077  -0.014  0.00  0.00    +0.000 C 
ATOM      8  O   UNL     1       0.465   0.326  -1.290  0.00  0.00    +0.000 OA
ENDBRANCH   1   8
BRANCH   3   9
ATOM      9  C   UNL     1      -0.406   4.392  -3.952  0.00  0.00    +0.000 C 
ATOM     10  C   UNL     1      -1.693   4.012  -4.176  0.00  0.00    +0.000 C 
BRANCH  10  11
ATOM     11  C   UNL     1      -2.561   4.802  -5.142  0.00  0.00    +0.000 A 
ATOM     12  C   UNL     1      -3.813   5.170  -4.678  0.00  0.00    +0.000 A 
ATOM     13  C   UNL     1      -4.652   5.728  -5.672  0.00  0.00    +0.000 A 
ATOM     14  C   UNL     1      -4.228   6.205  -6.828  0.00  0.00    +0.000 A 
ATOM     15  C   UNL     1      -2.958   5.862  -7.199  0.00  0.00    +0.000 A 
ATOM     16  C   UNL     1      -2.123   5.200  -6.331  0.00  0.00    +0.000 A 
BRANCH  14  17
ATOM     17  O   UNL     1      -5.047   7.031  -7.642  0.00  0.00    +0.000 OA
ATOM     18  H   UNL     1      -4.699   7.378  -8.513  0.00  0.00    +0.000 HD
ENDBRANCH  14  17
ENDBRANCH  10  11
ENDBRANCH   3   9
BRANCH   5  19
ATOM     19  O   UNL     1       3.939   3.424  -2.122  0.00  0.00    +0.000 OA
ATOM     20  C   UNL     1       4.829   2.510  -1.497  0.00  0.00    +0.000 C 
ENDBRANCH   5  19
TORSDOF 5
