
 OpenBabel03132512093D

 59 58  0  0  0  0  0  0  0  0999 V2000
    1.0802    0.0177   -0.0571 C   0  0  0  0  0  0  0  0  0  0  0  0
    0.5735   -0.1408    1.3672 C   0  0  0  0  0  0  0  0  0  0  0  0
    1.0802    1.0135    2.2165 C   0  0  0  0  0  0  0  0  0  0  0  0
    0.1961    1.8464    2.8294 C   0  0  0  0  0  0  0  0  0  0  0  0
    0.7028    3.0006    3.6787 C   0  0  0  0  0  0  0  0  0  0  0  0
    0.1961    4.3133    3.1037 C   0  0  0  0  0  0  0  0  0  0  0  0
   -1.2239    4.3133    3.1037 O   0  0  0  0  0  0  0  0  0  0  0  0
    0.7028    5.4676    3.9531 C   0  0  0  0  0  0  0  0  0  0  0  0
    1.4849    6.4306    3.3950 C   0  0  0  0  0  0  0  0  0  0  0  0
    1.9916    7.5849    4.2443 C   0  0  0  0  0  0  0  0  0  0  0  0
    2.7737    8.5480    3.6862 C   0  0  0  0  0  0  0  0  0  0  0  0
    3.2803    9.7022    4.5355 C   0  0  0  0  0  0  0  0  0  0  0  0
    4.0625   10.6653    3.9775 C   0  0  0  0  0  0  0  0  0  0  0  0
    4.5691   11.8196    4.8268 C   0  0  0  0  0  0  0  0  0  0  0  0
    5.3512   12.7826    4.2687 C   0  0  0  0  0  0  0  0  0  0  0  0
    5.8579   13.9369    5.1180 C   0  0  0  0  0  0  0  0  0  0  0  0
    7.2779   13.9369    5.1180 O   0  0  0  0  0  0  0  0  0  0  0  0
    5.3512   15.2496    4.5431 C   0  0  0  0  0  0  0  0  0  0  0  0
    3.9312   15.2496    4.5431 O   0  0  0  0  0  0  0  0  0  0  0  0
    5.8579   16.4039    5.3924 C   0  0  0  0  0  0  0  0  0  0  0  0
    7.3779   16.4039    5.3924 C   0  0  0  0  0  0  0  0  0  0  0  0
    8.0581   17.4830    4.9198 C   0  0  0  0  0  0  0  0  0  0  0  0
    9.5781   17.4830    4.9198 C   0  0  0  0  0  0  0  0  0  0  0  0
   10.0848   17.6414    3.4955 C   0  0  0  0  0  0  0  0  0  0  0  0
    9.5781   18.9541    2.9205 C   0  0  0  0  0  0  0  0  0  0  0  0
   10.4040   19.8390    2.5330 O   0  0  0  0  0  0  0  0  0  0  0  0
    8.1820   19.1918    2.8164 O   0  0  0  0  0  0  0  0  0  0  0  0
    0.7235    0.9417   -0.4618 H   0  0  0  0  0  0  0  0  0  0  0  0
    0.7235   -0.7949   -0.6550 H   0  0  0  0  0  0  0  0  0  0  0  0
    2.1502    0.0177   -0.0571 H   0  0  0  0  0  0  0  0  0  0  0  0
   -0.4965   -0.1408    1.3672 H   0  0  0  0  0  0  0  0  0  0  0  0
    0.9302   -1.0648    1.7719 H   0  0  0  0  0  0  0  0  0  0  0  0
    2.1322    1.1710    2.3324 H   0  0  0  0  0  0  0  0  0  0  0  0
   -0.8558    1.6889    2.7135 H   0  0  0  0  0  0  0  0  0  0  0  0
    0.3461    2.8891    4.6813 H   0  0  0  0  0  0  0  0  0  0  0  0
    1.7728    3.0006    3.6787 H   0  0  0  0  0  0  0  0  0  0  0  0
    0.5528    4.4248    2.1011 H   0  0  0  0  0  0  0  0  0  0  0  0
   -1.5572    3.5539    2.5450 H   0  0  0  0  0  0  0  0  0  0  0  0
    0.4443    5.5226    4.9899 H   0  0  0  0  0  0  0  0  0  0  0  0
    1.7434    6.3756    2.3581 H   0  0  0  0  0  0  0  0  0  0  0  0
    1.7331    7.6399    5.2812 H   0  0  0  0  0  0  0  0  0  0  0  0
    3.0322    8.4929    2.6494 H   0  0  0  0  0  0  0  0  0  0  0  0
    3.0219    9.7573    5.5724 H   0  0  0  0  0  0  0  0  0  0  0  0
    4.3210   10.6103    2.9406 H   0  0  0  0  0  0  0  0  0  0  0  0
    4.3106   11.8746    5.8636 H   0  0  0  0  0  0  0  0  0  0  0  0
    5.6097   12.7276    3.2318 H   0  0  0  0  0  0  0  0  0  0  0  0
    5.5012   13.8254    6.1206 H   0  0  0  0  0  0  0  0  0  0  0  0
    7.6112   13.0733    5.4963 H   0  0  0  0  0  0  0  0  0  0  0  0
    5.7079   15.3611    3.5405 H   0  0  0  0  0  0  0  0  0  0  0  0
    3.5979   14.4902    3.9843 H   0  0  0  0  0  0  0  0  0  0  0  0
    5.5012   17.3279    4.9877 H   0  0  0  0  0  0  0  0  0  0  0  0
    5.5012   16.2923    6.3950 H   0  0  0  0  0  0  0  0  0  0  0  0
    7.9129   15.5551    5.7642 H   0  0  0  0  0  0  0  0  0  0  0  0
    7.5231   18.3318    4.5480 H   0  0  0  0  0  0  0  0  0  0  0  0
    9.9348   18.2956    5.5177 H   0  0  0  0  0  0  0  0  0  0  0  0
    9.9348   16.5590    5.3245 H   0  0  0  0  0  0  0  0  0  0  0  0
   11.1548   17.6414    3.4955 H   0  0  0  0  0  0  0  0  0  0  0  0
    9.7281   16.8289    2.8976 H   0  0  0  0  0  0  0  0  0  0  0  0
    7.8487   20.0554    2.4381 H   0  0  0  0  0  0  0  0  0  0  0  0
  1  2  1  0  0  0  0
  1 28  1  0  0  0  0
  1 29  1  0  0  0  0
  1 30  1  0  0  0  0
  2  3  1  0  0  0  0
  2 31  1  0  0  0  0
  2 32  1  0  0  0  0
  3  4  2  0  0  0  0
  3 33  1  0  0  0  0
  4  5  1  0  0  0  0
  4 34  1  0  0  0  0
  5  6  1  0  0  0  0
  5 35  1  0  0  0  0
  5 36  1  0  0  0  0
  6  7  1  0  0  0  0
  6  8  1  0  0  0  0
  6 37  1  0  0  0  0
  7 38  1  0  0  0  0
  8  9  2  0  0  0  0
  8 39  1  0  0  0  0
  9 10  1  0  0  0  0
  9 40  1  0  0  0  0
 10 11  2  0  0  0  0
 10 41  1  0  0  0  0
 11 12  1  0  0  0  0
 11 42  1  0  0  0  0
 12 13  2  0  0  0  0
 12 43  1  0  0  0  0
 13 14  1  0  0  0  0
 13 44  1  0  0  0  0
 14 15  2  0  0  0  0
 14 45  1  0  0  0  0
 15 16  1  0  0  0  0
 15 46  1  0  0  0  0
 16 17  1  0  0  0  0
 16 18  1  0  0  0  0
 16 47  1  0  0  0  0
 17 48  1  0  0  0  0
 18 19  1  0  0  0  0
 18 20  1  0  0  0  0
 18 49  1  0  0  0  0
 19 50  1  0  0  0  0
 20 21  1  0  0  0  0
 20 51  1  0  0  0  0
 20 52  1  0  0  0  0
 21 22  2  0  0  0  0
 21 53  1  0  0  0  0
 22 23  1  0  0  0  0
 22 54  1  0  0  0  0
 23 24  1  0  0  0  0
 23 55  1  0  0  0  0
 23 56  1  0  0  0  0
 24 25  1  0  0  0  0
 24 57  1  0  0  0  0
 24 58  1  0  0  0  0
 25 26  2  0  0  0  0
 25 27  1  0  0  0  0
 27 59  1  0  0  0  0
M  END
