REMARK  Name = 
REMARK  19 active torsions:
REMARK  status: ('A' for Active; 'I' for Inactive)
REMARK    1  A    between atoms: C_1  and  C_2
REMARK    2  A    between atoms: C_2  and  C_3
REMARK    3  A    between atoms: C_4  and  C_5
REMARK    4  A    between atoms: C_5  and  C_6
REMARK    5  A    between atoms: C_6  and  O_7
REMARK    6  A    between atoms: C_6  and  C_8
REMARK    7  A    between atoms: C_9  and  C_10
REMARK    8  A    between atoms: C_11  and  C_12
REMARK    9  A    between atoms: C_13  and  C_14
REMARK   10  A    between atoms: C_15  and  C_16
REMARK   11  A    between atoms: C_16  and  O_17
REMARK   12  A    between atoms: C_16  and  C_18
REMARK   13  A    between atoms: C_18  and  O_19
REMARK   14  A    between atoms: C_18  and  C_20
REMARK   15  A    between atoms: C_20  and  C_21
REMARK   16  A    between atoms: C_22  and  C_23
REMARK   17  A    between atoms: C_23  and  C_24
REMARK   18  A    between atoms: C_24  and  C_25
REMARK   19  A    between atoms: C_25  and  O_27
REMARK                            x       y       z     vdW  Elec       q    Type
REMARK                         _______ _______ _______ _____ _____    ______ ____
ROOT
ATOM      1  C   UNL     1       4.516  11.707   4.933  0.00  0.00    +0.000 C 
ATOM      2  C   UNL     1       5.298  12.671   4.376  0.00  0.00    +0.000 C 
ENDROOT
BRANCH   1   4
ATOM      3  C   UNL     1       3.227   9.590   4.639  0.00  0.00    +0.000 C 
ATOM      4  C   UNL     1       4.009  10.554   4.082  0.00  0.00    +0.000 C 
BRANCH   3   6
ATOM      5  C   UNL     1       1.938   7.473   4.346  0.00  0.00    +0.000 C 
ATOM      6  C   UNL     1       2.720   8.437   3.789  0.00  0.00    +0.000 C 
BRANCH   5   8
ATOM      7  C   UNL     1       0.649   5.356   4.052  0.00  0.00    +0.000 C 
ATOM      8  C   UNL     1       1.431   6.320   3.495  0.00  0.00    +0.000 C 
BRANCH   7   9
ATOM      9  C   UNL     1       0.143   4.203   3.201  0.00  0.00    +0.000 C 
BRANCH   9  10
ATOM     10  O   UNL     1      -1.277   4.203   3.201  0.00  0.00    +0.000 OA
ATOM     11  H   UNL     1      -1.611   3.444   2.642  0.00  0.00    +0.000 HD
ENDBRANCH   9  10
BRANCH   9  12
ATOM     12  C   UNL     1       0.649   2.889   3.775  0.00  0.00    +0.000 C 
BRANCH  12  14
ATOM     13  C   UNL     1       1.027   0.904   2.310  0.00  0.00    +0.000 C 
ATOM     14  C   UNL     1       0.143   1.736   2.924  0.00  0.00    +0.000 C 
BRANCH  13  16
ATOM     15  C   UNL     1       1.027  -0.089   0.036  0.00  0.00    +0.000 C 
ATOM     16  C   UNL     1       0.520  -0.249   1.460  0.00  0.00    +0.000 C 
ENDBRANCH  13  16
ENDBRANCH  12  14
ENDBRANCH   9  12
ENDBRANCH   7   9
ENDBRANCH   5   8
ENDBRANCH   3   6
ENDBRANCH   1   4
BRANCH   2  17
ATOM     17  C   UNL     1       5.804  13.824   5.226  0.00  0.00    +0.000 C 
BRANCH  17  18
ATOM     18  O   UNL     1       7.224  13.824   5.226  0.00  0.00    +0.000 OA
ATOM     19  H   UNL     1       7.558  12.960   5.604  0.00  0.00    +0.000 HD
ENDBRANCH  17  18
BRANCH  17  20
ATOM     20  C   UNL     1       5.298  15.137   4.653  0.00  0.00    +0.000 C 
BRANCH  20  21
ATOM     21  O   UNL     1       3.878  15.137   4.653  0.00  0.00    +0.000 OA
ATOM     22  H   UNL     1       3.545  14.379   4.093  0.00  0.00    +0.000 HD
ENDBRANCH  20  21
BRANCH  20  23
ATOM     23  C   UNL     1       5.804  16.291   5.504  0.00  0.00    +0.000 C 
BRANCH  23  24
ATOM     24  C   UNL     1       7.324  16.291   5.504  0.00  0.00    +0.000 C 
ATOM     25  C   UNL     1       8.005  17.370   5.032  0.00  0.00    +0.000 C 
BRANCH  25  26
ATOM     26  C   UNL     1       9.525  17.370   5.032  0.00  0.00    +0.000 C 
BRANCH  26  27
ATOM     27  C   UNL     1      10.031  17.530   3.608  0.00  0.00    +0.000 C 
BRANCH  27  28
ATOM     28  C   UNL     1       9.525  18.844   3.035  0.00  0.00    +0.000 C 
ATOM     29  O   UNL     1      10.351  19.729   2.648  0.00  0.00    +0.000 OA
BRANCH  28  30
ATOM     30  O   UNL     1       8.129  19.081   2.931  0.00  0.00    +0.000 OA
ATOM     31  H   UNL     1       7.795  19.945   2.554  0.00  0.00    +0.000 HD
ENDBRANCH  28  30
ENDBRANCH  27  28
ENDBRANCH  26  27
ENDBRANCH  25  26
ENDBRANCH  23  24
ENDBRANCH  20  23
ENDBRANCH  17  20
ENDBRANCH   2  17
TORSDOF 18
