REMARK  Name = 
REMARK  5 active torsions:
REMARK  status: ('A' for Active; 'I' for Inactive)
REMARK    1  A    between atoms: O_1  and  C_2
REMARK    2  A    between atoms: C_5  and  C_6
REMARK    3  A    between atoms: C_7  and  C_8
REMARK    4  A    between atoms: C_10  and  O_11
REMARK    5  A    between atoms: C_13  and  O_14
REMARK                            x       y       z     vdW  Elec       q    Type
REMARK                         _______ _______ _______ _____ _____    ______ ____
ROOT
ATOM      1  C   UNL     1      -3.396   0.087  -0.044  0.00  0.00    +0.000 C 
ATOM      2  C   UNL     1      -4.041   1.285  -0.057  0.00  0.00    +0.000 C 
ENDROOT
BRANCH   1   6
ATOM      3  C   UNL     1       0.885  -0.025  -0.001  0.00  0.00    +0.000 A 
ATOM      4  C   UNL     1       0.224   1.180   0.016  0.00  0.00    +0.000 A 
ATOM      5  C   UNL     1      -1.157   1.212   0.000  0.00  0.00    +0.000 A 
ATOM      6  C   UNL     1      -1.877   0.042  -0.014  0.00  0.00    +0.000 A 
ATOM      7  C   UNL     1      -1.226  -1.172  -0.001  0.00  0.00    +0.000 A 
ATOM      8  C   UNL     1       0.171  -1.241   0.015  0.00  0.00    +0.000 A 
BRANCH   3   9
ATOM      9  O   UNL     1       2.237   0.005  -0.011  0.00  0.00    +0.000 OA
ATOM     10  H   UNL     1       2.756  -0.850  -0.023  0.00  0.00    +0.000 HD
ENDBRANCH   3   9
ENDBRANCH   1   6
BRANCH   2  11
ATOM     11  C   UNL     1      -5.560   1.330  -0.087  0.00  0.00    +0.000 A 
ATOM     12  C   UNL     1      -6.290   0.490   0.760  0.00  0.00    +0.000 A 
ATOM     13  C   UNL     1      -7.697   0.578   0.712  0.00  0.00    +0.000 A 
ATOM     14  C   UNL     1      -8.320   1.426  -0.172  0.00  0.00    +0.000 A 
ATOM     15  C   UNL     1      -7.568   2.242  -0.994  0.00  0.00    +0.000 A 
ATOM     16  C   UNL     1      -6.196   2.198  -0.948  0.00  0.00    +0.000 A 
BRANCH  13  17
ATOM     17  O   UNL     1      -8.484  -0.178   1.511  0.00  0.00    +0.000 OA
ATOM     18  H   UNL     1      -8.070  -0.808   2.168  0.00  0.00    +0.000 HD
ENDBRANCH  13  17
BRANCH  15  19
ATOM     19  O   UNL     1      -8.216   3.131  -1.892  0.00  0.00    +0.000 OA
ATOM     20  H   UNL     1      -7.674   3.723  -2.489  0.00  0.00    +0.000 HD
ENDBRANCH  15  19
ENDBRANCH   2  11
TORSDOF 5
