
 OpenBabel03132512093D

 42 43  0  0  0  0  0  0  0  0999 V2000
    1.0983    0.0180    0.0038 C   0  0  0  0  0  0  0  0  0  0  0  0
    0.5916   -1.3596   -0.3912 C   0  0  0  0  0  0  0  0  0  0  0  0
    1.0983   -2.3904    0.6043 C   0  0  0  0  0  0  0  0  0  0  0  0
   -0.9284   -1.3596   -0.3912 C   0  0  0  0  0  0  0  0  0  0  0  0
   -1.4350   -0.3287   -1.3867 C   0  0  0  0  0  0  0  0  0  0  0  0
   -2.1657   -0.6918   -2.3611 O   0  0  0  0  0  0  0  0  0  0  0  0
   -1.0678    1.1365   -1.2168 C   0  0  0  0  0  0  0  0  0  0  0  0
   -2.0471    2.1049   -1.3640 C   0  0  0  0  0  0  0  0  0  0  0  0
   -1.5397    3.4210   -1.4755 C   0  0  0  0  0  0  0  0  0  0  0  0
   -0.3210    3.7864   -1.1213 C   0  0  0  0  0  0  0  0  0  0  0  0
    0.0318    5.1516   -0.9539 O   0  0  0  0  0  0  0  0  0  0  0  0
    1.3540    5.5015   -0.5721 C   0  0  0  0  0  0  0  0  0  0  0  0
    1.6361    4.9501    0.6049 F   0  0  0  0  0  0  0  0  0  0  0  0
    2.2117    5.0578   -1.4865 F   0  0  0  0  0  0  0  0  0  0  0  0
    0.5826    2.7794   -0.9244 C   0  0  0  0  0  0  0  0  0  0  0  0
    1.9498    3.0979   -0.7103 O   0  0  0  0  0  0  0  0  0  0  0  0
    2.8969    2.0601   -0.5048 C   0  0  0  0  0  0  0  0  0  0  0  0
    3.0187    1.0679   -1.6544 C   0  0  0  0  0  0  0  0  0  0  0  0
    2.6474   -0.2635   -0.9957 C   0  0  0  0  0  0  0  0  0  0  0  0
    3.0298   -0.1348    0.3986 O   0  0  0  0  0  0  0  0  0  0  0  0
    3.3562    1.2288    0.6971 C   0  0  0  0  0  0  0  0  0  0  0  0
    0.1869    1.4636   -0.9308 C   0  0  0  0  0  0  0  0  0  0  0  0
    0.7416    0.2620    0.9827 H   0  0  0  0  0  0  0  0  0  0  0  0
    0.7416    0.7437   -0.6970 H   0  0  0  0  0  0  0  0  0  0  0  0
    2.1683    0.0180    0.0038 H   0  0  0  0  0  0  0  0  0  0  0  0
    0.9483   -1.6036   -1.3700 H   0  0  0  0  0  0  0  0  0  0  0  0
    0.7416   -2.1464    1.5831 H   0  0  0  0  0  0  0  0  0  0  0  0
    0.7416   -3.3602    0.3262 H   0  0  0  0  0  0  0  0  0  0  0  0
    2.1683   -2.3904    0.6043 H   0  0  0  0  0  0  0  0  0  0  0  0
   -1.2850   -2.3293   -0.6693 H   0  0  0  0  0  0  0  0  0  0  0  0
   -1.2850   -1.1155    0.5876 H   0  0  0  0  0  0  0  0  0  0  0  0
   -3.0925    1.8783   -1.3910 H   0  0  0  0  0  0  0  0  0  0  0  0
   -2.1884    4.1725   -1.8746 H   0  0  0  0  0  0  0  0  0  0  0  0
    1.4332    6.5658   -0.4955 H   0  0  0  0  0  0  0  0  0  0  0  0
    3.4487    2.9498   -0.2842 H   0  0  0  0  0  0  0  0  0  0  0  0
    3.9886    1.0607   -2.1062 H   0  0  0  0  0  0  0  0  0  0  0  0
    2.3393    1.3092   -2.4451 H   0  0  0  0  0  0  0  0  0  0  0  0
    1.6041   -0.4772   -1.0999 H   0  0  0  0  0  0  0  0  0  0  0  0
    3.1813   -1.0686   -1.4557 H   0  0  0  0  0  0  0  0  0  0  0  0
    4.4056    1.3461    0.8698 H   0  0  0  0  0  0  0  0  0  0  0  0
    2.8456    1.5457    1.5823 H   0  0  0  0  0  0  0  0  0  0  0  0
    0.8963    0.6955   -0.7032 H   0  0  0  0  0  0  0  0  0  0  0  0
  1  2  1  0  0  0  0
  1 23  1  0  0  0  0
  1 24  1  0  0  0  0
  1 25  1  0  0  0  0
  2  3  1  0  0  0  0
  2  4  1  0  0  0  0
  2 26  1  0  0  0  0
  3 27  1  0  0  0  0
  3 28  1  0  0  0  0
  3 29  1  0  0  0  0
  4  5  1  0  0  0  0
  4 30  1  0  0  0  0
  4 31  1  0  0  0  0
  5  6  2  0  0  0  0
  5  7  1  0  0  0  0
  7  8  1  0  0  0  0
  7 22  2  0  0  0  0
  8  9  2  0  0  0  0
  8 32  1  0  0  0  0
  9 10  1  0  0  0  0
  9 33  1  0  0  0  0
 10 11  1  0  0  0  0
 10 15  2  0  0  0  0
 11 12  1  0  0  0  0
 12 13  1  0  0  0  0
 12 14  1  0  0  0  0
 12 34  1  0  0  0  0
 15 16  1  0  0  0  0
 15 22  1  0  0  0  0
 16 17  1  0  0  0  0
 17 18  1  0  0  0  0
 17 21  1  0  0  0  0
 17 35  1  0  0  0  0
 18 19  1  0  0  0  0
 18 36  1  0  0  0  0
 18 37  1  0  0  0  0
 19 20  1  0  0  0  0
 19 38  1  0  0  0  0
 19 39  1  0  0  0  0
 20 21  1  0  0  0  0
 21 40  1  0  0  0  0
 21 41  1  0  0  0  0
 22 42  1  0  0  0  0
M  END
