REMARK  Name = 
REMARK  9 active torsions:
REMARK  status: ('A' for Active; 'I' for Inactive)
REMARK    1  A    between atoms: C_1  and  C_2
REMARK    2  A    between atoms: C_2  and  C_3
REMARK    3  A    between atoms: C_2  and  C_4
REMARK    4  A    between atoms: C_4  and  C_5
REMARK    5  A    between atoms: C_5  and  C_7
REMARK    6  A    between atoms: C_10  and  O_11
REMARK    7  A    between atoms: O_11  and  C_12
REMARK    8  A    between atoms: C_15  and  O_16
REMARK    9  A    between atoms: O_16  and  C_17
REMARK                            x       y       z     vdW  Elec       q    Type
REMARK                         _______ _______ _______ _____ _____    ______ ____
ROOT
ATOM      1  C   UNL     1      -1.068   1.137  -1.217  0.00  0.00    +0.000 A 
ATOM      2  C   UNL     1      -2.047   2.105  -1.364  0.00  0.00    +0.000 A 
ATOM      3  C   UNL     1      -1.540   3.421  -1.476  0.00  0.00    +0.000 A 
ATOM      4  C   UNL     1      -0.321   3.786  -1.121  0.00  0.00    +0.000 A 
ATOM      5  C   UNL     1       0.583   2.779  -0.924  0.00  0.00    +0.000 A 
ATOM      6  C   UNL     1       0.187   1.464  -0.931  0.00  0.00    +0.000 A 
ENDROOT
BRANCH   1   7
ATOM      7  C   UNL     1      -1.435  -0.329  -1.387  0.00  0.00    +0.000 C 
ATOM      8  O   UNL     1      -2.166  -0.692  -2.361  0.00  0.00    +0.000 OA
BRANCH   7   9
ATOM      9  C   UNL     1      -0.928  -1.360  -0.391  0.00  0.00    +0.000 C 
BRANCH   9  11
ATOM     10  C   UNL     1       1.098   0.018   0.004  0.00  0.00    +0.000 C 
ATOM     11  C   UNL     1       0.592  -1.360  -0.391  0.00  0.00    +0.000 C 
ATOM     12  C   UNL     1       1.098  -2.390   0.604  0.00  0.00    +0.000 C 
ENDBRANCH   9  11
ENDBRANCH   7   9
ENDBRANCH   1   7
BRANCH   4  13
ATOM     13  O   UNL     1       0.032   5.152  -0.954  0.00  0.00    +0.000 OA
BRANCH  13  14
ATOM     14  C   UNL     1       1.354   5.502  -0.572  0.00  0.00    +0.000 C 
ATOM     15  F   UNL     1       1.636   4.950   0.605  0.00  0.00    +0.000 F 
ATOM     16  F   UNL     1       2.212   5.058  -1.486  0.00  0.00    +0.000 F 
ENDBRANCH  13  14
ENDBRANCH   4  13
BRANCH   5  17
ATOM     17  O   UNL     1       1.950   3.098  -0.710  0.00  0.00    +0.000 OA
BRANCH  17  18
ATOM     18  C   UNL     1       2.897   2.060  -0.505  0.00  0.00    +0.000 C 
ATOM     19  C   UNL     1       3.019   1.068  -1.654  0.00  0.00    +0.000 C 
ATOM     20  C   UNL     1       2.647  -0.264  -0.996  0.00  0.00    +0.000 C 
ATOM     21  O   UNL     1       3.030  -0.135   0.399  0.00  0.00    +0.000 OA
ATOM     22  C   UNL     1       3.356   1.229   0.697  0.00  0.00    +0.000 C 
ENDBRANCH  17  18
ENDBRANCH   5  17
TORSDOF 7
