
 OpenBabel03132514253D

 42 43  0  0  0  0  0  0  0  0999 V2000
    1.0269    0.0660   -0.0702 C   0  0  0  0  0  0  0  0  0  0  0  0
    0.5202   -0.2603    1.3252 C   0  0  0  0  0  0  0  0  0  0  0  0
    1.0269    0.7850    2.3055 C   0  0  0  0  0  0  0  0  0  0  0  0
   -0.9998   -0.2603    1.3252 C   0  0  0  0  0  0  0  0  0  0  0  0
   -1.5064   -1.3057    0.3449 C   0  0  0  0  0  0  0  0  0  0  0  0
   -2.2371   -2.2609    0.7559 O   0  0  0  0  0  0  0  0  0  0  0  0
   -1.1392   -1.2086   -1.1268 C   0  0  0  0  0  0  0  0  0  0  0  0
   -2.1212   -1.3925   -2.0863 C   0  0  0  0  0  0  0  0  0  0  0  0
   -1.6171   -1.5584   -3.3979 C   0  0  0  0  0  0  0  0  0  0  0  0
   -0.3985   -1.2223   -3.7801 C   0  0  0  0  0  0  0  0  0  0  0  0
   -0.0485   -1.1112   -5.1518 O   0  0  0  0  0  0  0  0  0  0  0  0
    1.2737   -0.7471   -5.5199 C   0  0  0  0  0  0  0  0  0  0  0  0
    1.5599    0.4505   -5.0173 F   0  0  0  0  0  0  0  0  0  0  0  0
    2.1303   -1.6450   -5.0415 F   0  0  0  0  0  0  0  0  0  0  0  0
    0.5080   -0.9871   -2.7840 C   0  0  0  0  0  0  0  0  0  0  0  0
    1.8749   -0.7894   -3.1141 O   0  0  0  0  0  0  0  0  0  0  0  0
    2.8250   -0.5443   -2.0876 C   0  0  0  0  0  0  0  0  0  0  0  0
    2.8863   -1.6964   -1.0927 C   0  0  0  0  0  0  0  0  0  0  0  0
    1.7527   -1.3653   -0.1182 C   0  0  0  0  0  0  0  0  0  0  0  0
    1.6326    0.0812   -0.1284 O   0  0  0  0  0  0  0  0  0  0  0  0
    2.4061    0.6331   -1.2017 C   0  0  0  0  0  0  0  0  0  0  0  0
    0.1154   -0.9391   -1.4681 C   0  0  0  0  0  0  0  0  0  0  0  0
    0.6702    1.0315   -0.3624 H   0  0  0  0  0  0  0  0  0  0  0  0
    0.6702   -0.6699   -0.7603 H   0  0  0  0  0  0  0  0  0  0  0  0
    2.0969    0.0660   -0.0702 H   0  0  0  0  0  0  0  0  0  0  0  0
    0.8769   -1.2259    1.6175 H   0  0  0  0  0  0  0  0  0  0  0  0
    0.6702    1.7506    2.0133 H   0  0  0  0  0  0  0  0  0  0  0  0
    0.6702    0.5553    3.2878 H   0  0  0  0  0  0  0  0  0  0  0  0
    2.0969    0.7850    2.3055 H   0  0  0  0  0  0  0  0  0  0  0  0
   -1.3564   -0.4900    2.3075 H   0  0  0  0  0  0  0  0  0  0  0  0
   -1.3564    0.7052    1.0330 H   0  0  0  0  0  0  0  0  0  0  0  0
   -3.1661   -1.4077   -1.8564 H   0  0  0  0  0  0  0  0  0  0  0  0
   -2.2686   -1.9860   -4.1312 H   0  0  0  0  0  0  0  0  0  0  0  0
    1.3506   -0.7139   -6.5867 H   0  0  0  0  0  0  0  0  0  0  0  0
    3.7462   -0.3808   -2.6067 H   0  0  0  0  0  0  0  0  0  0  0  0
    3.8394   -1.7937   -0.6161 H   0  0  0  0  0  0  0  0  0  0  0  0
    2.7151   -2.6344   -1.5784 H   0  0  0  0  0  0  0  0  0  0  0  0
    0.8367   -1.8386   -0.4040 H   0  0  0  0  0  0  0  0  0  0  0  0
    1.9932   -1.7123    0.8650 H   0  0  0  0  0  0  0  0  0  0  0  0
    3.2599    1.1610   -0.8313 H   0  0  0  0  0  0  0  0  0  0  0  0
    1.8162    1.3267   -1.7637 H   0  0  0  0  0  0  0  0  0  0  0  0
    0.8272   -0.6824   -0.7115 H   0  0  0  0  0  0  0  0  0  0  0  0
  1  2  1  0  0  0  0
  1 23  1  0  0  0  0
  1 24  1  0  0  0  0
  1 25  1  0  0  0  0
  2  3  1  0  0  0  0
  2  4  1  0  0  0  0
  2 26  1  0  0  0  0
  3 27  1  0  0  0  0
  3 28  1  0  0  0  0
  3 29  1  0  0  0  0
  4  5  1  0  0  0  0
  4 30  1  0  0  0  0
  4 31  1  0  0  0  0
  5  6  2  0  0  0  0
  5  7  1  0  0  0  0
  7  8  1  0  0  0  0
  7 22  2  0  0  0  0
  8  9  2  0  0  0  0
  8 32  1  0  0  0  0
  9 10  1  0  0  0  0
  9 33  1  0  0  0  0
 10 11  1  0  0  0  0
 10 15  2  0  0  0  0
 11 12  1  0  0  0  0
 12 13  1  0  0  0  0
 12 14  1  0  0  0  0
 12 34  1  0  0  0  0
 15 16  1  0  0  0  0
 15 22  1  0  0  0  0
 16 17  1  0  0  0  0
 17 18  1  0  0  0  0
 17 21  1  0  0  0  0
 17 35  1  0  0  0  0
 18 19  1  0  0  0  0
 18 36  1  0  0  0  0
 18 37  1  0  0  0  0
 19 20  1  0  0  0  0
 19 38  1  0  0  0  0
 19 39  1  0  0  0  0
 20 21  1  0  0  0  0
 21 40  1  0  0  0  0
 21 41  1  0  0  0  0
 22 42  1  0  0  0  0
M  END
