REMARK  Name = 
REMARK  6 active torsions:
REMARK  status: ('A' for Active; 'I' for Inactive)
REMARK    1  A    between atoms: C_1  and  C_2
REMARK    2  A    between atoms: C_7  and  O_8
REMARK    3  A    between atoms: C_10  and  O_11
REMARK    4  A    between atoms: C_12  and  C_13
REMARK    5  A    between atoms: N_16  and  C_17
REMARK    6  A    between atoms: C_19  and  O_20
REMARK                            x       y       z     vdW  Elec       q    Type
REMARK                         _______ _______ _______ _____ _____    ______ ____
ROOT
ATOM      1  C   UNL     1       1.060   0.033   0.072  0.00  0.00    +0.000 C 
ATOM      2  C   UNL     1       0.554  -0.729  -1.141  0.00  0.00    +0.000 A 
ATOM      3  C   UNL     1       0.012  -0.067  -2.256  0.00  0.00    +0.000 A 
ATOM      4  C   UNL     1      -0.298  -0.769  -3.407  0.00  0.00    +0.000 A 
ATOM      5  O   UNL     1      -0.798  -0.166  -4.408  0.00  0.00    +0.000 OA
ATOM      6  C   UNL     1      -0.056  -2.148  -3.463  0.00  0.00    +0.000 A 
ATOM      7  C   UNL     1      -0.355  -2.889  -4.623  0.00  0.00    +0.000 A 
ATOM      8  C   UNL     1      -0.119  -4.224  -4.656  0.00  0.00    +0.000 A 
ATOM      9  C   UNL     1       0.424  -4.888  -3.540  0.00  0.00    +0.000 A 
ATOM     10  C   UNL     1       0.729  -4.188  -2.384  0.00  0.00    +0.000 A 
ATOM     11  C   UNL     1       0.492  -2.807  -2.332  0.00  0.00    +0.000 A 
ATOM     12  O   UNL     1       0.791  -2.065  -1.172  0.00  0.00    +0.000 OA
ENDROOT
BRANCH  10  13
ATOM     13  C   UNL     1       1.316  -4.911  -1.183  0.00  0.00    +0.000 C 
ATOM     14  C   UNL     1       0.387  -6.023  -0.691  0.00  0.00    +0.000 C 
ATOM     15  C   UNL     1       0.175  -6.967  -1.743  0.00  0.00    +0.000 C 
ATOM     16  N   UNL     1       1.367  -7.612  -2.195  0.00  0.00    +0.000 NA
ATOM     17  C   UNL     1       1.998  -8.319  -1.071  0.00  0.00    +0.000 C 
ATOM     18  C   UNL     1       2.336  -6.565  -2.748  0.00  0.00    +0.000 C 
ATOM     19  C   UNL     1       2.634  -5.531  -1.658  0.00  0.00    +0.000 C 
BRANCH  19  20
ATOM     20  O   UNL     1       3.482  -4.517  -2.177  0.00  0.00    +0.000 OA
ATOM     21  H   UNL     1       3.029  -4.067  -2.947  0.00  0.00    +0.000 HD
ENDBRANCH  19  20
ENDBRANCH  10  13
BRANCH   7  22
ATOM     22  O   UNL     1      -0.904  -2.238  -5.759  0.00  0.00    +0.000 OA
ATOM     23  H   UNL     1      -1.078  -1.253  -5.736  0.00  0.00    +0.000 HD
ENDBRANCH   7  22
BRANCH   9  24
ATOM     24  O   UNL     1       0.662  -6.287  -3.600  0.00  0.00    +0.000 OA
ATOM     25  H   UNL     1       0.443  -6.796  -4.432  0.00  0.00    +0.000 HD
ENDBRANCH   9  24
TORSDOF 4
