
 OpenBabel03132512093D

 41 43  0  0  0  0  0  0  0  0999 V2000
    1.0604    0.0333    0.0724 C   0  0  0  0  0  0  0  0  0  0  0  0
    0.5537   -0.7293   -1.1409 C   0  0  0  0  0  0  0  0  0  0  0  0
    0.0121   -0.0673   -2.2555 C   0  0  0  0  0  0  0  0  0  0  0  0
   -0.2977   -0.7687   -3.4073 C   0  0  0  0  0  0  0  0  0  0  0  0
   -0.7983   -0.1661   -4.4081 O   0  0  0  0  0  0  0  0  0  0  0  0
   -0.0558   -2.1484   -3.4630 C   0  0  0  0  0  0  0  0  0  0  0  0
   -0.3549   -2.8892   -4.6233 C   0  0  0  0  0  0  0  0  0  0  0  0
   -0.9037   -2.2377   -5.7594 O   0  0  0  0  0  0  0  0  0  0  0  0
   -0.1191   -4.2244   -4.6557 C   0  0  0  0  0  0  0  0  0  0  0  0
    0.4242   -4.8880   -3.5403 C   0  0  0  0  0  0  0  0  0  0  0  0
    0.6617   -6.2868   -3.5999 O   0  0  0  0  0  0  0  0  0  0  0  0
    0.7293   -4.1877   -2.3843 C   0  0  0  0  0  0  0  0  0  0  0  0
    1.3160   -4.9108   -1.1830 C   0  0  0  0  0  0  0  0  0  0  0  0
    0.3868   -6.0229   -0.6909 C   0  0  0  0  0  0  0  0  0  0  0  0
    0.1753   -6.9667   -1.7431 C   0  0  0  0  0  0  0  0  0  0  0  0
    1.3669   -7.6124   -2.1952 N   0  0  0  0  0  0  0  0  0  0  0  0
    1.9982   -8.3190   -1.0713 C   0  0  0  0  0  0  0  0  0  0  0  0
    2.3359   -6.5646   -2.7482 C   0  0  0  0  0  0  0  0  0  0  0  0
    2.6342   -5.5311   -1.6576 C   0  0  0  0  0  0  0  0  0  0  0  0
    3.4815   -4.5169   -2.1772 O   0  0  0  0  0  0  0  0  0  0  0  0
    0.4925   -2.8065   -2.3316 C   0  0  0  0  0  0  0  0  0  0  0  0
    0.7913   -2.0653   -1.1721 O   0  0  0  0  0  0  0  0  0  0  0  0
    0.7037   -0.4380    0.9644 H   0  0  0  0  0  0  0  0  0  0  0  0
    0.7037    1.0414    0.0345 H   0  0  0  0  0  0  0  0  0  0  0  0
    2.1304    0.0333    0.0724 H   0  0  0  0  0  0  0  0  0  0  0  0
   -0.1621    0.9876   -2.2134 H   0  0  0  0  0  0  0  0  0  0  0  0
   -1.0777   -1.2532   -5.7357 H   0  0  0  0  0  0  0  0  0  0  0  0
   -0.3490   -4.7800   -5.5407 H   0  0  0  0  0  0  0  0  0  0  0  0
    0.4430   -6.7961   -4.4322 H   0  0  0  0  0  0  0  0  0  0  0  0
    1.4544   -4.2274   -0.3714 H   0  0  0  0  0  0  0  0  0  0  0  0
    0.8333   -6.5165    0.1469 H   0  0  0  0  0  0  0  0  0  0  0  0
   -0.5512   -5.6001   -0.3970 H   0  0  0  0  0  0  0  0  0  0  0  0
   -0.2138   -6.4187   -2.5757 H   0  0  0  0  0  0  0  0  0  0  0  0
   -0.5007   -7.7174   -1.3904 H   0  0  0  0  0  0  0  0  0  0  0  0
    2.2429   -7.6176   -0.3013 H   0  0  0  0  0  0  0  0  0  0  0  0
    1.3205   -9.0512   -0.6846 H   0  0  0  0  0  0  0  0  0  0  0  0
    2.8905   -8.8026   -1.4101 H   0  0  0  0  0  0  0  0  0  0  0  0
    1.8963   -6.0787   -3.5941 H   0  0  0  0  0  0  0  0  0  0  0  0
    3.2456   -7.0412   -3.0484 H   0  0  0  0  0  0  0  0  0  0  0  0
    3.1225   -6.0093   -0.8342 H   0  0  0  0  0  0  0  0  0  0  0  0
    3.0293   -4.0669   -2.9472 H   0  0  0  0  0  0  0  0  0  0  0  0
  1  2  1  0  0  0  0
  1 23  1  0  0  0  0
  1 24  1  0  0  0  0
  1 25  1  0  0  0  0
  2  3  2  0  0  0  0
  2 22  1  0  0  0  0
  3  4  1  0  0  0  0
  3 26  1  0  0  0  0
  4  5  2  0  0  0  0
  4  6  1  0  0  0  0
  6  7  1  0  0  0  0
  6 21  2  0  0  0  0
  7  8  1  0  0  0  0
  7  9  2  0  0  0  0
  8 27  1  0  0  0  0
  9 10  1  0  0  0  0
  9 28  1  0  0  0  0
 10 11  1  0  0  0  0
 10 12  2  0  0  0  0
 11 29  1  0  0  0  0
 12 13  1  0  0  0  0
 12 21  1  0  0  0  0
 13 14  1  0  0  0  0
 13 19  1  0  0  0  0
 13 30  1  0  0  0  0
 14 15  1  0  0  0  0
 14 31  1  0  0  0  0
 14 32  1  0  0  0  0
 15 16  1  0  0  0  0
 15 33  1  0  0  0  0
 15 34  1  0  0  0  0
 16 17  1  0  0  0  0
 16 18  1  0  0  0  0
 17 35  1  0  0  0  0
 17 36  1  0  0  0  0
 17 37  1  0  0  0  0
 18 19  1  0  0  0  0
 18 38  1  0  0  0  0
 18 39  1  0  0  0  0
 19 20  1  0  0  0  0
 19 40  1  0  0  0  0
 20 41  1  0  0  0  0
 21 22  1  0  0  0  0
M  END
