REMARK  Name = 
REMARK  6 active torsions:
REMARK  status: ('A' for Active; 'I' for Inactive)
REMARK    1  A    between atoms: C_1  and  C_2
REMARK    2  A    between atoms: C_7  and  O_8
REMARK    3  A    between atoms: C_10  and  O_11
REMARK    4  A    between atoms: C_12  and  C_13
REMARK    5  A    between atoms: N_16  and  C_17
REMARK    6  A    between atoms: C_19  and  O_20
REMARK                            x       y       z     vdW  Elec       q    Type
REMARK                         _______ _______ _______ _____ _____    ______ ____
ROOT
ATOM      1  C   UNL     1       0.927  -0.066   0.018  0.00  0.00    +0.000 C 
ATOM      2  C   UNL     1       0.420  -1.495  -0.081  0.00  0.00    +0.000 A 
ATOM      3  C   UNL     1      -0.939  -1.740  -0.342  0.00  0.00    +0.000 A 
ATOM      4  C   UNL     1      -1.415  -3.037  -0.428  0.00  0.00    +0.000 A 
ATOM      5  O   UNL     1      -2.647  -3.252  -0.652  0.00  0.00    +0.000 OA
ATOM      6  C   UNL     1      -0.529  -4.111  -0.264  0.00  0.00    +0.000 A 
ATOM      7  C   UNL     1      -0.983  -5.442  -0.351  0.00  0.00    +0.000 A 
ATOM      8  C   UNL     1      -0.112  -6.468  -0.185  0.00  0.00    +0.000 A 
ATOM      9  C   UNL     1       1.249  -6.223   0.076  0.00  0.00    +0.000 A 
ATOM     10  C   UNL     1       1.726  -4.926   0.167  0.00  0.00    +0.000 A 
ATOM     11  C   UNL     1       0.841  -3.852  -0.002  0.00  0.00    +0.000 A 
ATOM     12  O   UNL     1       1.293  -2.521   0.085  0.00  0.00    +0.000 OA
ENDROOT
BRANCH  10  13
ATOM     13  C   UNL     1       3.198  -4.669   0.449  0.00  0.00    +0.000 C 
ATOM     14  C   UNL     1       3.550  -5.360   1.768  0.00  0.00    +0.000 C 
ATOM     15  C   UNL     1       3.281  -6.760   1.658  0.00  0.00    +0.000 C 
ATOM     16  N   UNL     1       4.040  -7.421   0.645  0.00  0.00    +0.000 NA
ATOM     17  C   UNL     1       5.475  -7.254   0.920  0.00  0.00    +0.000 C 
ATOM     18  C   UNL     1       3.708  -6.813  -0.720  0.00  0.00    +0.000 C 
ATOM     19  C   UNL     1       4.004  -5.310  -0.685  0.00  0.00    +0.000 C 
BRANCH  19  20
ATOM     20  O   UNL     1       3.639  -4.722  -1.925  0.00  0.00    +0.000 OA
ATOM     21  H   UNL     1       2.663  -4.866  -2.088  0.00  0.00    +0.000 HD
ENDBRANCH  19  20
ENDBRANCH  10  13
BRANCH   7  22
ATOM     22  O   UNL     1      -2.353  -5.710  -0.614  0.00  0.00    +0.000 OA
ATOM     23  H   UNL     1      -2.995  -4.953  -0.737  0.00  0.00    +0.000 HD
ENDBRANCH   7  22
BRANCH   9  24
ATOM     24  O   UNL     1       2.141  -7.315   0.246  0.00  0.00    +0.000 OA
ATOM     25  H   UNL     1       1.801  -8.254   0.181  0.00  0.00    +0.000 HD
ENDBRANCH   9  24
TORSDOF 4
