REMARK  Name = 
REMARK  15 active torsions:
REMARK  status: ('A' for Active; 'I' for Inactive)
REMARK    1  A    between atoms: C_1  and  C_2
REMARK    2  A    between atoms: C_2  and  C_4
REMARK    3  A    between atoms: C_5  and  O_6
REMARK    4  A    between atoms: C_7  and  C_8
REMARK    5  A    between atoms: C_9  and  O_10
REMARK    6  A    between atoms: C_11  and  C_12
REMARK    7  A    between atoms: C_12  and  C_13
REMARK    8  A    between atoms: C_14  and  O_15
REMARK    9  A    between atoms: C_18  and  C_19
REMARK   10  A    between atoms: C_19  and  C_21
REMARK   11  A    between atoms: C_22  and  C_23
REMARK   12  A    between atoms: C_29  and  O_30
REMARK   13  A    between atoms: C_32  and  C_33
REMARK   14  A    between atoms: C_32  and  C_34
REMARK   15  A    between atoms: C_37  and  O_38
REMARK                            x       y       z     vdW  Elec       q    Type
REMARK                         _______ _______ _______ _____ _____    ______ ____
ROOT
ATOM      1  C   UNL     1       4.444  -0.947  -5.516  0.00  0.00    +0.000 A 
ATOM      2  C   UNL     1       5.656  -1.582  -5.333  0.00  0.00    +0.000 A 
ATOM      3  C   UNL     1       6.138  -2.398  -6.258  0.00  0.00    +0.000 A 
ATOM      4  C   UNL     1       5.481  -2.639  -7.380  0.00  0.00    +0.000 A 
ATOM      5  C   UNL     1       4.263  -2.037  -7.629  0.00  0.00    +0.000 A 
ATOM      6  C   UNL     1       3.731  -1.172  -6.684  0.00  0.00    +0.000 A 
ATOM      7  O   UNL     1       6.035  -3.526  -8.340  0.00  0.00    +0.000 OA
ATOM      8  C   UNL     1       5.337  -3.791  -9.548  0.00  0.00    +0.000 C 
ATOM      9  C   UNL     1       3.981  -4.397  -9.227  0.00  0.00    +0.000 C 
ATOM     10  C   UNL     1       5.143  -2.494 -10.316  0.00  0.00    +0.000 C 
ATOM     11  C   UNL     1       6.140  -4.766 -10.394  0.00  0.00    +0.000 C 
ATOM     12  C   UNL     1       7.479  -3.074  -6.024  0.00  0.00    +0.000 C 
ENDROOT
BRANCH   2  13
ATOM     13  O   UNL     1       6.393  -1.359  -4.140  0.00  0.00    +0.000 OA
ATOM     14  H   UNL     1       6.034  -0.744  -3.438  0.00  0.00    +0.000 HD
ENDBRANCH   2  13
BRANCH   5  15
ATOM     15  C   UNL     1       3.515  -2.320  -8.922  0.00  0.00    +0.000 C 
ATOM     16  O   UNL     1       4.010  -3.114  -9.782  0.00  0.00    +0.000 OA
BRANCH  15  17
ATOM     17  C   UNL     1       2.175  -1.653  -9.186  0.00  0.00    +0.000 C 
ATOM     18  C   UNL     1       1.645  -0.803  -8.265  0.00  0.00    +0.000 C 
BRANCH  18  19
ATOM     19  C   UNL     1       0.305  -0.136  -8.530  0.00  0.00    +0.000 A 
ATOM     20  C   UNL     1       0.124   1.209  -8.277  0.00  0.00    +0.000 A 
ATOM     21  C   UNL     1      -1.044   1.789  -8.504  0.00  0.00    +0.000 A 
ATOM     22  C   UNL     1      -2.073   1.110  -8.982  0.00  0.00    +0.000 A 
ATOM     23  C   UNL     1      -1.964  -0.239  -9.258  0.00  0.00    +0.000 A 
ATOM     24  C   UNL     1      -0.755  -0.880  -9.027  0.00  0.00    +0.000 A 
ENDBRANCH  18  19
ENDBRANCH  15  17
ENDBRANCH   5  15
BRANCH   6  25
ATOM     25  O   UNL     1       2.484  -0.531  -6.908  0.00  0.00    +0.000 OA
ATOM     26  H   UNL     1       2.110   0.090  -6.220  0.00  0.00    +0.000 HD
ENDBRANCH   6  25
BRANCH   1  27
ATOM     27  C   UNL     1       3.910   0.136  -4.592  0.00  0.00    +0.000 C 
BRANCH  27  33
ATOM     28  C   UNL     1       0.901  -0.713  -2.454  0.00  0.00    +0.000 A 
ATOM     29  C   UNL     1      -0.052  -0.855  -3.442  0.00  0.00    +0.000 A 
ATOM     30  C   UNL     1       0.265  -0.690  -4.717  0.00  0.00    +0.000 A 
ATOM     31  C   UNL     1      -0.810  -0.861  -5.777  0.00  0.00    +0.000 C 
ATOM     32  C   UNL     1       1.495  -0.379  -5.090  0.00  0.00    +0.000 A 
ATOM     33  C   UNL     1       2.499  -0.221  -4.154  0.00  0.00    +0.000 A 
ATOM     34  C   UNL     1       2.203  -0.393  -2.810  0.00  0.00    +0.000 A 
BRANCH  28  36
ATOM     35  C   UNL     1       1.041  -0.032   0.086  0.00  0.00    +0.000 C 
ATOM     36  C   UNL     1       0.534  -0.967  -1.001  0.00  0.00    +0.000 C 
ATOM     37  O   UNL     1      -0.197  -1.960  -0.694  0.00  0.00    +0.000 OA
ENDBRANCH  28  36
BRANCH  29  38
ATOM     38  O   UNL     1      -1.388  -1.182  -3.088  0.00  0.00    +0.000 OA
ATOM     39  H   UNL     1      -1.633  -1.308  -2.127  0.00  0.00    +0.000 HD
ENDBRANCH  29  38
BRANCH  32  40
ATOM     40  O   UNL     1       1.787  -0.205  -6.468  0.00  0.00    +0.000 OA
ATOM     41  H   UNL     1       2.716   0.031  -6.757  0.00  0.00    +0.000 HD
ENDBRANCH  32  40
BRANCH  34  42
ATOM     42  O   UNL     1       3.211  -0.245  -1.820  0.00  0.00    +0.000 OA
ATOM     43  H   UNL     1       2.985  -0.372  -0.854  0.00  0.00    +0.000 HD
ENDBRANCH  34  42
ENDBRANCH  27  33
ENDBRANCH   1  27
TORSDOF 11
