
 OpenBabel03132514253D

 43 44  0  0  0  0  0  0  0  0999 V2000
    0.9989   -0.0777   -0.0630 C   0  0  0  0  0  0  0  0  0  0  0  0
    0.4923   -1.4949    0.1497 C   0  0  0  0  0  0  0  0  0  0  0  0
    0.9823   -2.0021    1.4394 N   0  0  0  0  0  0  0  0  0  0  0  0
    0.0270   -2.4109    2.4793 C   0  0  0  0  0  0  0  0  0  0  0  0
    0.2424   -3.8773    2.8168 C   0  0  0  0  0  0  0  0  0  0  0  0
    2.4275   -2.1004    1.6894 C   0  0  0  0  0  0  0  0  0  0  0  0
    3.2538   -1.0588    1.3431 C   0  0  0  0  0  0  0  0  0  0  0  0
    4.6107   -1.1484    1.5638 C   0  0  0  0  0  0  0  0  0  0  0  0
    5.1722   -2.2871    2.1508 C   0  0  0  0  0  0  0  0  0  0  0  0
    6.6709   -2.3980    2.3789 C   0  0  0  0  0  0  0  0  0  0  0  0
    7.4653   -1.4118    2.0220 N   0  0  0  0  0  0  0  0  0  0  0  0
    6.9227   -0.2439    1.4239 N   0  0  0  0  0  0  0  0  0  0  0  0
    5.4733   -0.1366    1.2033 C   0  0  0  0  0  0  0  0  0  0  0  0
    4.9876    0.9087    0.6679 O   0  0  0  0  0  0  0  0  0  0  0  0
    4.5554   -1.2759    1.6156 C   0  0  0  0  0  0  0  0  0  0  0  0
    4.6596   -1.9338    2.8437 C   0  0  0  0  0  0  0  0  0  0  0  0
    3.7909   -2.9665    3.1368 C   0  0  0  0  0  0  0  0  0  0  0  0
    2.8514   -3.3866    2.2751 N   0  0  0  0  0  0  0  0  0  0  0  0
    2.7704   -2.7675    1.0933 C   0  0  0  0  0  0  0  0  0  0  0  0
    3.5787   -1.7145    0.7306 C   0  0  0  0  0  0  0  0  0  0  0  0
    4.2973   -3.3285    2.5234 C   0  0  0  0  0  0  0  0  0  0  0  0
    4.7479   -4.4562    3.1184 O   0  0  0  0  0  0  0  0  0  0  0  0
    2.9491   -3.2397    2.2711 C   0  0  0  0  0  0  0  0  0  0  0  0
    0.6423    0.5508    0.7261 H   0  0  0  0  0  0  0  0  0  0  0  0
    0.6423    0.2915   -1.0018 H   0  0  0  0  0  0  0  0  0  0  0  0
    2.0689   -0.0777   -0.0630 H   0  0  0  0  0  0  0  0  0  0  0  0
   -0.5777   -1.4949    0.1497 H   0  0  0  0  0  0  0  0  0  0  0  0
    0.8489   -2.1233   -0.6395 H   0  0  0  0  0  0  0  0  0  0  0  0
    0.1786   -1.8171    3.3563 H   0  0  0  0  0  0  0  0  0  0  0  0
   -0.9715   -2.2702    2.1215 H   0  0  0  0  0  0  0  0  0  0  0  0
    1.2409   -4.0180    3.1746 H   0  0  0  0  0  0  0  0  0  0  0  0
   -0.4529   -4.1749    3.5737 H   0  0  0  0  0  0  0  0  0  0  0  0
    0.0908   -4.4711    1.9397 H   0  0  0  0  0  0  0  0  0  0  0  0
    2.8423   -0.1756    0.9009 H   0  0  0  0  0  0  0  0  0  0  0  0
    5.2449   -0.3341    1.2817 H   0  0  0  0  0  0  0  0  0  0  0  0
    7.0798   -3.2780    2.8296 H   0  0  0  0  0  0  0  0  0  0  0  0
    7.5386    0.5207    1.1472 H   0  0  0  0  0  0  0  0  0  0  0  0
    5.4063   -1.6398    3.5514 H   0  0  0  0  0  0  0  0  0  0  0  0
    3.8699   -3.4507    4.0877 H   0  0  0  0  0  0  0  0  0  0  0  0
    2.0381   -3.1090    0.3918 H   0  0  0  0  0  0  0  0  0  0  0  0
    3.4564   -1.2399   -0.2206 H   0  0  0  0  0  0  0  0  0  0  0  0
    5.7219   -4.5606    3.3195 H   0  0  0  0  0  0  0  0  0  0  0  0
    2.3030   -4.0538    2.5254 H   0  0  0  0  0  0  0  0  0  0  0  0
  1  2  1  0  0  0  0
  1 24  1  0  0  0  0
  1 25  1  0  0  0  0
  1 26  1  0  0  0  0
  2  3  1  0  0  0  0
  2 27  1  0  0  0  0
  2 28  1  0  0  0  0
  3  4  1  0  0  0  0
  3  6  1  0  0  0  0
  4  5  1  0  0  0  0
  4 29  1  0  0  0  0
  4 30  1  0  0  0  0
  5 31  1  0  0  0  0
  5 32  1  0  0  0  0
  5 33  1  0  0  0  0
  6  7  1  0  0  0  0
  6 23  2  0  0  0  0
  7  8  2  0  0  0  0
  7 34  1  0  0  0  0
  8  9  1  0  0  0  0
  8 35  1  0  0  0  0
  9 10  1  0  0  0  0
  9 21  2  0  0  0  0
 10 11  2  0  0  0  0
 10 36  1  0  0  0  0
 11 12  1  0  0  0  0
 12 13  1  0  0  0  0
 12 37  1  0  0  0  0
 13 14  2  0  0  0  0
 13 15  1  0  0  0  0
 15 16  1  0  0  0  0
 15 20  2  0  0  0  0
 16 17  2  0  0  0  0
 16 38  1  0  0  0  0
 17 18  1  0  0  0  0
 17 39  1  0  0  0  0
 18 19  2  0  0  0  0
 19 20  1  0  0  0  0
 19 40  1  0  0  0  0
 20 41  1  0  0  0  0
 21 22  1  0  0  0  0
 21 23  1  0  0  0  0
 22 42  1  0  0  0  0
 23 43  1  0  0  0  0
M  END
