REMARK  Name = 
REMARK  9 active torsions:
REMARK  status: ('A' for Active; 'I' for Inactive)
REMARK    1  A    between atoms: C_1  and  C_2
REMARK    2  A    between atoms: C_2  and  N_3
REMARK    3  A    between atoms: N_3  and  C_4
REMARK    4  A    between atoms: N_3  and  C_6
REMARK    5  A    between atoms: C_4  and  C_5
REMARK    6  A    between atoms: C_9  and  C_10
REMARK    7  A    between atoms: N_11  and  N_12
REMARK    8  A    between atoms: C_13  and  C_15
REMARK    9  A    between atoms: C_21  and  O_22
REMARK                            x       y       z     vdW  Elec       q    Type
REMARK                         _______ _______ _______ _____ _____    ______ ____
ROOT
ATOM      1  C   UNL     1       2.409   2.483  -0.707  0.00  0.00    +0.000 A 
ATOM      2  C   UNL     1       3.236   1.395  -0.844  0.00  0.00    +0.000 A 
ATOM      3  C   UNL     1       4.593   1.571  -1.006  0.00  0.00    +0.000 A 
ATOM      4  C   UNL     1       5.153   2.853  -1.045  0.00  0.00    +0.000 A 
ATOM      5  C   UNL     1       4.277   3.952  -0.931  0.00  0.00    +0.000 A 
ATOM      6  C   UNL     1       2.930   3.762  -0.741  0.00  0.00    +0.000 A 
ENDROOT
BRANCH   4   7
ATOM      7  C   UNL     1       6.652   3.052  -1.204  0.00  0.00    +0.000 C 
ATOM      8  N   UNL     1       7.447   2.009  -1.308  0.00  0.00    +0.000 NA
BRANCH   8   9
ATOM      9  N   UNL     1       6.905   0.697  -1.271  0.00  0.00    +0.000 N 
ATOM     10  C   UNL     1       5.456   0.504  -1.117  0.00  0.00    +0.000 C 
ATOM     11  O   UNL     1       4.971  -0.670  -1.085  0.00  0.00    +0.000 OA
ATOM     12  H   UNL     1       7.522  -0.112  -1.352  0.00  0.00    +0.000 HD
BRANCH  10  13
ATOM     13  C   UNL     1       4.537   1.709  -0.997  0.00  0.00    +0.000 A 
ATOM     14  C   UNL     1       4.680   2.809  -1.847  0.00  0.00    +0.000 A 
ATOM     15  C   UNL     1       3.817   3.880  -1.722  0.00  0.00    +0.000 A 
ATOM     16  N   UNL     1       2.847   3.921  -0.796  0.00  0.00    +0.000 NA
ATOM     17  C   UNL     1       2.728   2.875   0.028  0.00  0.00    +0.000 A 
ATOM     18  C   UNL     1       3.529   1.758  -0.043  0.00  0.00    +0.000 A 
ENDBRANCH  10  13
ENDBRANCH   8   9
ENDBRANCH   4   7
BRANCH   5  19
ATOM     19  O   UNL     1       4.727   5.226  -0.982  0.00  0.00    +0.000 OA
ATOM     20  H   UNL     1       5.701   5.408  -1.119  0.00  0.00    +0.000 HD
ENDBRANCH   5  19
BRANCH   1  21
ATOM     21  N   UNL     1       0.964   2.286  -0.524  0.00  0.00    +0.000 N 
BRANCH  21  23
ATOM     22  C   UNL     1       0.980  -0.098   0.001  0.00  0.00    +0.000 C 
ATOM     23  C   UNL     1       0.474   1.272   0.421  0.00  0.00    +0.000 C 
ENDBRANCH  21  23
BRANCH  21  24
ATOM     24  C   UNL     1       0.009   3.104  -1.285  0.00  0.00    +0.000 C 
ATOM     25  C   UNL     1       0.224   4.572  -0.957  0.00  0.00    +0.000 C 
ENDBRANCH  21  24
ENDBRANCH   1  21
TORSDOF 7
