
 OpenBabel03132512093D

 49 50  0  0  0  0  0  0  0  0999 V2000
    0.9370   -0.0486   -0.0605 C   0  0  0  0  0  0  0  0  0  0  0  0
    0.2568    1.0903    0.2411 C   0  0  0  0  0  0  0  0  0  0  0  0
   -1.2632    1.0903    0.2411 C   0  0  0  0  0  0  0  0  0  0  0  0
    1.0168    2.3628    0.5781 C   0  0  0  0  0  0  0  0  0  0  0  0
    1.1548    3.4896   -0.4060 C   0  0  0  0  0  0  0  0  0  0  0  0
    0.6412    4.7196   -0.1469 C   0  0  0  0  0  0  0  0  0  0  0  0
   -0.4513    5.6906    0.2699 C   0  0  0  0  0  0  0  0  0  0  0  0
    0.0398    4.9497    1.0722 C   0  0  0  0  0  0  0  0  0  0  0  0
    0.2370    4.1156    2.1295 C   0  0  0  0  0  0  0  0  0  0  0  0
    1.1353    2.9127    2.0001 C   0  0  0  0  0  0  0  0  0  0  0  0
    1.8698    2.4345    2.9204 O   0  0  0  0  0  0  0  0  0  0  0  0
   -0.9931    6.3683    1.2870 C   0  0  0  0  0  0  0  0  0  0  0  0
   -0.0499    7.5248    0.2523 C   0  0  0  0  0  0  0  0  0  0  0  0
    0.0375    6.9392   -1.0894 C   0  0  0  0  0  0  0  0  0  0  0  0
   -1.2910    6.5941   -1.4533 O   0  0  0  0  0  0  0  0  0  0  0  0
   -2.0137    5.6441   -0.6842 C   0  0  0  0  0  0  0  0  0  0  0  0
   -1.4716    5.1026    0.3298 O   0  0  0  0  0  0  0  0  0  0  0  0
   -3.4358    5.2747   -1.0737 C   0  0  0  0  0  0  0  0  0  0  0  0
   -4.0161    5.8542   -2.1591 C   0  0  0  0  0  0  0  0  0  0  0  0
   -5.7095    5.4143   -2.6229 S   0  0  0  0  0  0  0  0  0  0  0  0
   -6.3551    4.1888   -1.4578 C   0  0  0  0  0  0  0  0  0  0  0  0
    0.8032    5.7238   -1.1835 C   0  0  0  0  0  0  0  0  0  0  0  0
    0.2765    5.0493   -2.4397 C   0  0  0  0  0  0  0  0  0  0  0  0
    0.4020   -0.9444   -0.2978 H   0  0  0  0  0  0  0  0  0  0  0  0
    2.0070   -0.0486   -0.0605 H   0  0  0  0  0  0  0  0  0  0  0  0
   -1.6199    1.3542    1.2147 H   0  0  0  0  0  0  0  0  0  0  0  0
   -1.6199    1.8015   -0.4743 H   0  0  0  0  0  0  0  0  0  0  0  0
   -1.6199    0.1151   -0.0172 H   0  0  0  0  0  0  0  0  0  0  0  0
    1.8362    1.6874    0.4464 H   0  0  0  0  0  0  0  0  0  0  0  0
    2.2090    3.6728   -0.4025 H   0  0  0  0  0  0  0  0  0  0  0  0
    0.6980    3.1560   -1.3143 H   0  0  0  0  0  0  0  0  0  0  0  0
   -1.2824    5.6005   -0.3980 H   0  0  0  0  0  0  0  0  0  0  0  0
   -0.7685    5.4644    1.2665 H   0  0  0  0  0  0  0  0  0  0  0  0
   -0.0722    6.6906    0.2346 H   0  0  0  0  0  0  0  0  0  0  0  0
   -0.2502    4.3158    3.0609 H   0  0  0  0  0  0  0  0  0  0  0  0
   -2.0242    6.2421    1.0308 H   0  0  0  0  0  0  0  0  0  0  0  0
   -1.0408    6.6842    2.3082 H   0  0  0  0  0  0  0  0  0  0  0  0
   -0.5306    8.4801    0.2177 H   0  0  0  0  0  0  0  0  0  0  0  0
    0.9313    7.6612    0.6568 H   0  0  0  0  0  0  0  0  0  0  0  0
    0.4863    7.6631   -1.7370 H   0  0  0  0  0  0  0  0  0  0  0  0
   -3.9804    4.5588   -0.4942 H   0  0  0  0  0  0  0  0  0  0  0  0
   -3.4715    6.5701   -2.7386 H   0  0  0  0  0  0  0  0  0  0  0  0
   -5.7397    3.3139   -1.4830 H   0  0  0  0  0  0  0  0  0  0  0  0
   -6.3511    4.5993   -0.4697 H   0  0  0  0  0  0  0  0  0  0  0  0
   -7.3562    3.9288   -1.7320 H   0  0  0  0  0  0  0  0  0  0  0  0
    1.8364    6.0018   -1.1951 H   0  0  0  0  0  0  0  0  0  0  0  0
    0.3960    5.7075   -3.2748 H   0  0  0  0  0  0  0  0  0  0  0  0
    0.8233    4.1466   -2.6158 H   0  0  0  0  0  0  0  0  0  0  0  0
   -0.7607    4.8190   -2.3127 H   0  0  0  0  0  0  0  0  0  0  0  0
  1  2  2  0  0  0  0
  1 24  1  0  0  0  0
  1 25  1  0  0  0  0
  2  3  1  0  0  0  0
  2  4  1  0  0  0  0
  3 26  1  0  0  0  0
  3 27  1  0  0  0  0
  3 28  1  0  0  0  0
  4  5  1  0  0  0  0
  4 10  1  0  0  0  0
  4 29  1  0  0  0  0
  5  6  1  0  0  0  0
  5 30  1  0  0  0  0
  5 31  1  0  0  0  0
  6  7  1  0  0  0  0
  6  8  1  0  0  0  0
  6 22  1  0  0  0  0
  7 32  1  0  0  0  0
  7 33  1  0  0  0  0
  7 34  1  0  0  0  0
  8  9  2  0  0  0  0
  8 12  1  0  0  0  0
  9 10  1  0  0  0  0
  9 35  1  0  0  0  0
 10 11  2  0  0  0  0
 12 13  1  0  0  0  0
 12 36  1  0  0  0  0
 12 37  1  0  0  0  0
 13 14  1  0  0  0  0
 13 38  1  0  0  0  0
 13 39  1  0  0  0  0
 14 15  1  0  0  0  0
 14 22  1  0  0  0  0
 14 40  1  0  0  0  0
 15 16  1  0  0  0  0
 16 17  2  0  0  0  0
 16 18  1  0  0  0  0
 18 19  2  0  0  0  0
 18 41  1  0  0  0  0
 19 20  1  0  0  0  0
 19 42  1  0  0  0  0
 20 21  1  0  0  0  0
 21 43  1  0  0  0  0
 21 44  1  0  0  0  0
 21 45  1  0  0  0  0
 22 23  1  0  0  0  0
 22 46  1  0  0  0  0
 23 47  1  0  0  0  0
 23 48  1  0  0  0  0
 23 49  1  0  0  0  0
M  END
