REMARK  Name = 
REMARK  9 active torsions:
REMARK  status: ('A' for Active; 'I' for Inactive)
REMARK    1  A    between atoms: C_2  and  C_3
REMARK    2  A    between atoms: C_2  and  C_4
REMARK    3  A    between atoms: C_6  and  C_7
REMARK    4  A    between atoms: C_14  and  O_15
REMARK    5  A    between atoms: O_15  and  C_16
REMARK    6  A    between atoms: C_16  and  C_18
REMARK    7  A    between atoms: C_19  and  S_20
REMARK    8  A    between atoms: S_20  and  C_21
REMARK    9  A    between atoms: C_22  and  C_23
REMARK                            x       y       z     vdW  Elec       q    Type
REMARK                         _______ _______ _______ _____ _____    ______ ____
ROOT
ATOM      1  C   UNL     1       1.017   2.363   0.578  0.00  0.00    +0.000 C 
ATOM      2  C   UNL     1       1.155   3.490  -0.406  0.00  0.00    +0.000 C 
ATOM      3  C   UNL     1       0.641   4.720  -0.147  0.00  0.00    +0.000 C 
ATOM      4  C   UNL     1      -0.451   5.691   0.270  0.00  0.00    +0.000 C 
ATOM      5  C   UNL     1       0.040   4.950   1.072  0.00  0.00    +0.000 C 
ATOM      6  C   UNL     1       0.237   4.116   2.130  0.00  0.00    +0.000 C 
ATOM      7  C   UNL     1       1.135   2.913   2.000  0.00  0.00    +0.000 C 
ATOM      8  O   UNL     1       1.870   2.434   2.920  0.00  0.00    +0.000 OA
ATOM      9  C   UNL     1      -0.993   6.368   1.287  0.00  0.00    +0.000 C 
ATOM     10  C   UNL     1      -0.050   7.525   0.252  0.00  0.00    +0.000 C 
ATOM     11  C   UNL     1       0.037   6.939  -1.089  0.00  0.00    +0.000 C 
ATOM     12  C   UNL     1       0.803   5.724  -1.183  0.00  0.00    +0.000 C 
ATOM     13  C   UNL     1       0.277   5.049  -2.440  0.00  0.00    +0.000 C 
ENDROOT
BRANCH   1  15
ATOM     14  C   UNL     1       0.937  -0.049  -0.060  0.00  0.00    +0.000 C 
ATOM     15  C   UNL     1       0.257   1.090   0.241  0.00  0.00    +0.000 C 
ATOM     16  C   UNL     1      -1.263   1.090   0.241  0.00  0.00    +0.000 C 
ENDBRANCH   1  15
BRANCH  11  17
ATOM     17  O   UNL     1      -1.291   6.594  -1.453  0.00  0.00    +0.000 OA
BRANCH  17  18
ATOM     18  C   UNL     1      -2.014   5.644  -0.684  0.00  0.00    +0.000 C 
ATOM     19  O   UNL     1      -1.472   5.103   0.330  0.00  0.00    +0.000 OA
BRANCH  18  20
ATOM     20  C   UNL     1      -3.436   5.275  -1.074  0.00  0.00    +0.000 C 
ATOM     21  C   UNL     1      -4.016   5.854  -2.159  0.00  0.00    +0.000 C 
BRANCH  21  22
ATOM     22  S   UNL     1      -5.710   5.414  -2.623  0.00  0.00    +0.000 S 
ATOM     23  C   UNL     1      -6.355   4.189  -1.458  0.00  0.00    +0.000 C 
ENDBRANCH  21  22
ENDBRANCH  18  20
ENDBRANCH  17  18
ENDBRANCH  11  17
TORSDOF 5
