REMARK  Name = 
REMARK  9 active torsions:
REMARK  status: ('A' for Active; 'I' for Inactive)
REMARK    1  A    between atoms: C_2  and  C_3
REMARK    2  A    between atoms: C_2  and  C_4
REMARK    3  A    between atoms: C_6  and  C_7
REMARK    4  A    between atoms: C_14  and  O_15
REMARK    5  A    between atoms: O_15  and  C_16
REMARK    6  A    between atoms: C_16  and  C_18
REMARK    7  A    between atoms: C_19  and  S_20
REMARK    8  A    between atoms: S_20  and  C_21
REMARK    9  A    between atoms: C_22  and  C_23
REMARK                            x       y       z     vdW  Elec       q    Type
REMARK                         _______ _______ _______ _____ _____    ______ ____
ROOT
ATOM      1  C   UNL     1       1.129   1.365   2.160  0.00  0.00    +0.000 C 
ATOM      2  C   UNL     1       1.577   2.724   1.702  0.00  0.00    +0.000 C 
ATOM      3  C   UNL     1       0.771   3.810   1.823  0.00  0.00    +0.000 C 
ATOM      4  C   UNL     1      -0.531   4.578   1.662  0.00  0.00    +0.000 C 
ATOM      5  C   UNL     1      -0.455   3.668   2.437  0.00  0.00    +0.000 C 
ATOM      6  C   UNL     1      -0.739   2.586   3.212  0.00  0.00    +0.000 C 
ATOM      7  C   UNL     1       0.291   1.508   3.430  0.00  0.00    +0.000 C 
ATOM      8  O   UNL     1       0.438   0.829   4.495  0.00  0.00    +0.000 OA
ATOM      9  C   UNL     1      -1.684   4.924   2.243  0.00  0.00    +0.000 C 
ATOM     10  C   UNL     1      -0.576   6.362   2.244  0.00  0.00    +0.000 C 
ATOM     11  C   UNL     1       0.387   6.173   1.154  0.00  0.00    +0.000 C 
ATOM     12  C   UNL     1       1.294   5.067   1.317  0.00  0.00    +0.000 C 
ATOM     13  C   UNL     1       1.739   4.741  -0.099  0.00  0.00    +0.000 C 
ENDROOT
BRANCH   1  15
ATOM     14  C   UNL     1       1.050   0.085   0.019  0.00  0.00    +0.000 C 
ATOM     15  C   UNL     1       0.369   0.689   1.030  0.00  0.00    +0.000 C 
ATOM     16  C   UNL     1      -1.151   0.689   1.030  0.00  0.00    +0.000 C 
ENDBRANCH   1  15
BRANCH  11  17
ATOM     17  O   UNL     1      -0.384   5.881  -0.003  0.00  0.00    +0.000 OA
BRANCH  17  18
ATOM     18  C   UNL     1      -1.206   4.723  -0.034  0.00  0.00    +0.000 C 
ATOM     19  O   UNL     1      -1.253   3.950   0.974  0.00  0.00    +0.000 OA
BRANCH  18  20
ATOM     20  C   UNL     1      -2.031   4.410  -1.271  0.00  0.00    +0.000 C 
ATOM     21  C   UNL     1      -1.981   5.238  -2.349  0.00  0.00    +0.000 C 
BRANCH  21  22
ATOM     22  S   UNL     1      -2.964   4.865  -3.823  0.00  0.00    +0.000 S 
ATOM     23  C   UNL     1      -3.897   3.338  -3.555  0.00  0.00    +0.000 C 
ENDBRANCH  21  22
ENDBRANCH  18  20
ENDBRANCH  17  18
ENDBRANCH  11  17
TORSDOF 5
