REMARK  Name = 
REMARK  9 active torsions:
REMARK  status: ('A' for Active; 'I' for Inactive)
REMARK    1  A    between atoms: O_1  and  C_2
REMARK    2  A    between atoms: C_2  and  C_3
REMARK    3  A    between atoms: C_8  and  O_9
REMARK    4  A    between atoms: O_9  and  C_10
REMARK    5  A    between atoms: C_12  and  C_13
REMARK    6  A    between atoms: C_13  and  O_14
REMARK    7  A    between atoms: C_15  and  O_16
REMARK    8  A    between atoms: C_17  and  O_18
REMARK    9  A    between atoms: C_19  and  O_20
REMARK                            x       y       z     vdW  Elec       q    Type
REMARK                         _______ _______ _______ _____ _____    ______ ____
ROOT
ATOM      1  C   UNL     1       1.484   1.587   3.046  0.00  0.00    +0.000 C 
ATOM      2  O   UNL     1       2.438   1.321   1.879  0.00  0.00    +0.000 OA
ATOM      3  C   UNL     1       2.034   0.133   1.196  0.00  0.00    +0.000 C 
ATOM      4  C   UNL     1       0.723   0.202   0.632  0.00  0.00    +0.000 C 
ATOM      5  C   UNL     1      -0.300   0.423   1.748  0.00  0.00    +0.000 C 
ATOM      6  C   UNL     1       0.054   1.705   2.509  0.00  0.00    +0.000 C 
ENDROOT
BRANCH   4   7
ATOM      7  O   UNL     1       0.433  -1.014  -0.043  0.00  0.00    +0.000 OA
ATOM      8  H   UNL     1       0.477  -1.774   0.606  0.00  0.00    +0.000 HD
ENDBRANCH   4   7
BRANCH   5   9
ATOM      9  O   UNL     1      -0.281  -0.682   2.640  0.00  0.00    +0.000 OA
ATOM     10  H   UNL     1       0.631  -0.773   3.038  0.00  0.00    +0.000 HD
ENDBRANCH   5   9
BRANCH   6  11
ATOM     11  O   UNL     1      -0.850   1.888   3.588  0.00  0.00    +0.000 OA
ATOM     12  H   UNL     1      -0.791   1.106   4.208  0.00  0.00    +0.000 HD
ENDBRANCH   6  11
BRANCH   1  13
ATOM     13  O   UNL     1       1.634   0.499   3.945  0.00  0.00    +0.000 OA
BRANCH  13  19
ATOM     14  C   UNL     1       0.982  -1.039   2.255  0.00  0.00    +0.000 A 
ATOM     15  C   UNL     1       0.865  -2.323   1.748  0.00  0.00    +0.000 A 
ATOM     16  C   UNL     1       0.902  -3.335   2.736  0.00  0.00    +0.000 A 
ATOM     17  C   UNL     1       1.358  -3.167   3.964  0.00  0.00    +0.000 A 
ATOM     18  C   UNL     1       1.517  -1.875   4.382  0.00  0.00    +0.000 A 
ATOM     19  C   UNL     1       1.370  -0.826   3.507  0.00  0.00    +0.000 A 
BRANCH  14  20
ATOM     20  C   UNL     1       0.475   0.105   1.393  0.00  0.00    +0.000 C 
BRANCH  20  21
ATOM     21  O   UNL     1       0.949  -0.058   0.064  0.00  0.00    +0.000 OA
ATOM     22  H   UNL     1       1.949  -0.058   0.064  0.00  0.00    +0.000 HD
ENDBRANCH  20  21
ENDBRANCH  14  20
ENDBRANCH  13  19
ENDBRANCH   1  13
BRANCH   3  23
ATOM     23  C   UNL     1       2.009  -0.981   2.230  0.00  0.00    +0.000 C 
BRANCH  23  24
ATOM     24  O   UNL     1       1.639  -2.200   1.604  0.00  0.00    +0.000 OA
ATOM     25  H   UNL     1       0.731  -2.104   1.196  0.00  0.00    +0.000 HD
ENDBRANCH  23  24
ENDBRANCH   3  23
TORSDOF 9
