
 OpenBabel03132512093D

 38 39  0  0  0  0  0  0  0  0999 V2000
    0.9488   -0.0576    0.0638 O   0  0  0  0  0  0  0  0  0  0  0  0
    0.4755    0.1053    1.3926 C   0  0  0  0  0  0  0  0  0  0  0  0
    0.9822   -1.0393    2.2548 C   0  0  0  0  0  0  0  0  0  0  0  0
    0.8647   -2.3231    1.7481 C   0  0  0  0  0  0  0  0  0  0  0  0
    0.9017   -3.3351    2.7363 C   0  0  0  0  0  0  0  0  0  0  0  0
    1.3584   -3.1668    3.9640 C   0  0  0  0  0  0  0  0  0  0  0  0
    1.5173   -1.8747    4.3819 C   0  0  0  0  0  0  0  0  0  0  0  0
    1.3698   -0.8257    3.5068 C   0  0  0  0  0  0  0  0  0  0  0  0
    1.6344    0.4987    3.9451 O   0  0  0  0  0  0  0  0  0  0  0  0
    1.4841    1.5875    3.0461 C   0  0  0  0  0  0  0  0  0  0  0  0
    2.4383    1.3211    1.8795 O   0  0  0  0  0  0  0  0  0  0  0  0
    2.0341    0.1328    1.1960 C   0  0  0  0  0  0  0  0  0  0  0  0
    2.0086   -0.9808    2.2302 C   0  0  0  0  0  0  0  0  0  0  0  0
    1.6390   -2.2003    1.6036 O   0  0  0  0  0  0  0  0  0  0  0  0
    0.7231    0.2019    0.6322 C   0  0  0  0  0  0  0  0  0  0  0  0
    0.4330   -1.0135   -0.0425 O   0  0  0  0  0  0  0  0  0  0  0  0
   -0.3005    0.4230    1.7483 C   0  0  0  0  0  0  0  0  0  0  0  0
   -0.2814   -0.6820    2.6399 O   0  0  0  0  0  0  0  0  0  0  0  0
    0.0541    1.7049    2.5085 C   0  0  0  0  0  0  0  0  0  0  0  0
   -0.8503    1.8877    3.5879 O   0  0  0  0  0  0  0  0  0  0  0  0
    1.9488   -0.0576    0.0638 H   0  0  0  0  0  0  0  0  0  0  0  0
    0.8322    1.0339    1.7870 H   0  0  0  0  0  0  0  0  0  0  0  0
   -0.5945    0.1053    1.3926 H   0  0  0  0  0  0  0  0  0  0  0  0
    0.7560   -2.5306    0.7041 H   0  0  0  0  0  0  0  0  0  0  0  0
    0.5339   -4.3041    2.4705 H   0  0  0  0  0  0  0  0  0  0  0  0
    1.5916   -3.9970    4.5975 H   0  0  0  0  0  0  0  0  0  0  0  0
    1.7599   -1.6776    5.4052 H   0  0  0  0  0  0  0  0  0  0  0  0
    1.7003    2.5037    3.5548 H   0  0  0  0  0  0  0  0  0  0  0  0
    2.7306   -0.0535    0.4054 H   0  0  0  0  0  0  0  0  0  0  0  0
    2.9800   -1.0843    2.6669 H   0  0  0  0  0  0  0  0  0  0  0  0
    1.2979   -0.7424    2.9937 H   0  0  0  0  0  0  0  0  0  0  0  0
    0.7312   -2.1036    1.1955 H   0  0  0  0  0  0  0  0  0  0  0  0
    0.6755    1.0149   -0.0618 H   0  0  0  0  0  0  0  0  0  0  0  0
    0.4774   -1.7735    0.6058 H   0  0  0  0  0  0  0  0  0  0  0  0
   -1.2783    0.5172    1.3240 H   0  0  0  0  0  0  0  0  0  0  0  0
    0.6312   -0.7730    3.0385 H   0  0  0  0  0  0  0  0  0  0  0  0
   -0.0130    2.5438    1.8478 H   0  0  0  0  0  0  0  0  0  0  0  0
   -0.7912    1.1057    4.2084 H   0  0  0  0  0  0  0  0  0  0  0  0
  1  2  1  0  0  0  0
  1 21  1  0  0  0  0
  2  3  1  0  0  0  0
  2 22  1  0  0  0  0
  2 23  1  0  0  0  0
  3  4  1  0  0  0  0
  3  8  2  0  0  0  0
  4  5  2  0  0  0  0
  4 24  1  0  0  0  0
  5  6  1  0  0  0  0
  5 25  1  0  0  0  0
  6  7  2  0  0  0  0
  6 26  1  0  0  0  0
  7  8  1  0  0  0  0
  7 27  1  0  0  0  0
  8  9  1  0  0  0  0
  9 10  1  0  0  0  0
 10 11  1  0  0  0  0
 10 19  1  0  0  0  0
 10 28  1  0  0  0  0
 11 12  1  0  0  0  0
 12 13  1  0  0  0  0
 12 15  1  0  0  0  0
 12 29  1  0  0  0  0
 13 14  1  0  0  0  0
 13 30  1  0  0  0  0
 13 31  1  0  0  0  0
 14 32  1  0  0  0  0
 15 16  1  0  0  0  0
 15 17  1  0  0  0  0
 15 33  1  0  0  0  0
 16 34  1  0  0  0  0
 17 18  1  0  0  0  0
 17 19  1  0  0  0  0
 17 35  1  0  0  0  0
 18 36  1  0  0  0  0
 19 20  1  0  0  0  0
 19 37  1  0  0  0  0
 20 38  1  0  0  0  0
M  END
