REMARK  Name = 
REMARK  5 active torsions:
REMARK  status: ('A' for Active; 'I' for Inactive)
REMARK    1  A    between atoms: C_1  and  S_2
REMARK    2  A    between atoms: S_2  and  C_4
REMARK    3  A    between atoms: C_7  and  C_8
REMARK    4  A    between atoms: C_10  and  C_11
REMARK    5  A    between atoms: C_18  and  C_19
REMARK                            x       y       z     vdW  Elec       q    Type
REMARK                         _______ _______ _______ _____ _____    ______ ____
ROOT
ATOM      1  C   UNL     1       2.016   6.787   0.496  0.00  0.00    +0.000 A 
ATOM      2  N   UNL     1       1.236   7.785   0.819  0.00  0.00    +0.000 NA
ATOM      3  C   UNL     1       2.089   8.881   0.984  0.00  0.00    +0.000 A 
ATOM      4  C   UNL     1       3.378   8.505   0.752  0.00  0.00    +0.000 A 
ATOM      5  N   UNL     1       3.342   7.159   0.452  0.00  0.00    +0.000 N 
ATOM      6  H   UNL     1       4.138   6.559   0.240  0.00  0.00    +0.000 HD
ENDROOT
BRANCH   3   7
ATOM      7  C   UNL     1       1.645  10.284   1.365  0.00  0.00    +0.000 A 
ATOM      8  C   UNL     1       1.977  11.325   0.514  0.00  0.00    +0.000 A 
ATOM      9  C   UNL     1       1.852  12.607   1.100  0.00  0.00    +0.000 A 
ATOM     10  C   UNL     1       1.159  12.866   2.194  0.00  0.00    +0.000 A 
ATOM     11  F   UNL     1       0.826  14.107   2.534  0.00  0.00    +0.000 F 
ATOM     12  C   UNL     1       0.801  11.789   2.957  0.00  0.00    +0.000 A 
ATOM     13  C   UNL     1       1.010  10.506   2.510  0.00  0.00    +0.000 A 
ENDBRANCH   3   7
BRANCH   1  17
ATOM     14  C   UNL     1       0.977   2.812  -0.672  0.00  0.00    +0.000 A 
ATOM     15  C   UNL     1       1.862   2.986   0.379  0.00  0.00    +0.000 A 
ATOM     16  C   UNL     1       1.967   4.325   0.824  0.00  0.00    +0.000 A 
ATOM     17  C   UNL     1       1.577   5.378   0.129  0.00  0.00    +0.000 A 
ATOM     18  C   UNL     1       0.758   5.133  -0.938  0.00  0.00    +0.000 A 
ATOM     19  C   UNL     1       0.503   3.849  -1.353  0.00  0.00    +0.000 A 
BRANCH  14  21
ATOM     20  C   UNL     1       0.977  -0.045   0.086  0.00  0.00    +0.000 C 
ATOM     21  S   UNL     1       0.373   1.165  -1.117  0.00  0.00    +0.000 S 
ATOM     22  O   UNL     1      -1.157   1.165  -1.117  0.00  0.00    +0.000 OA
ENDBRANCH  14  21
ENDBRANCH   1  17
BRANCH   4  23
ATOM     23  C   UNL     1       4.611   9.392   0.812  0.00  0.00    +0.000 A 
ATOM     24  C   UNL     1       4.970  10.055   1.988  0.00  0.00    +0.000 A 
ATOM     25  C   UNL     1       6.107  10.838   2.006  0.00  0.00    +0.000 A 
ATOM     26  N   UNL     1       6.884  11.009   0.925  0.00  0.00    +0.000 NA
ATOM     27  C   UNL     1       6.524  10.389  -0.203  0.00  0.00    +0.000 A 
ATOM     28  C   UNL     1       5.421   9.572  -0.302  0.00  0.00    +0.000 A 
ENDBRANCH   4  23
TORSDOF 4
