REMARK  Name = 
REMARK  5 active torsions:
REMARK  status: ('A' for Active; 'I' for Inactive)
REMARK    1  A    between atoms: C_1  and  S_2
REMARK    2  A    between atoms: S_2  and  C_4
REMARK    3  A    between atoms: C_7  and  C_8
REMARK    4  A    between atoms: C_10  and  C_11
REMARK    5  A    between atoms: C_18  and  C_19
REMARK                            x       y       z     vdW  Elec       q    Type
REMARK                         _______ _______ _______ _____ _____    ______ ____
ROOT
ATOM      1  C   UNL     1       1.756   6.079   3.358  0.00  0.00    +0.000 A 
ATOM      2  N   UNL     1       0.933   7.028   3.721  0.00  0.00    +0.000 NA
ATOM      3  C   UNL     1       1.713   7.936   4.445  0.00  0.00    +0.000 A 
ATOM      4  C   UNL     1       3.003   7.500   4.499  0.00  0.00    +0.000 A 
ATOM      5  N   UNL     1       3.037   6.302   3.816  0.00  0.00    +0.000 N 
ATOM      6  H   UNL     1       3.849   5.700   3.678  0.00  0.00    +0.000 HD
ENDROOT
BRANCH   3   7
ATOM      7  C   UNL     1       1.197   9.218   5.078  0.00  0.00    +0.000 A 
ATOM      8  C   UNL     1       1.850  10.395   4.750  0.00  0.00    +0.000 A 
ATOM      9  C   UNL     1       1.621  11.451   5.663  0.00  0.00    +0.000 A 
ATOM     10  C   UNL     1       0.630  11.486   6.535  0.00  0.00    +0.000 A 
ATOM     11  F   UNL     1       0.282  12.610   7.155  0.00  0.00    +0.000 F 
ATOM     12  C   UNL     1      -0.020  10.305   6.765  0.00  0.00    +0.000 A 
ATOM     13  C   UNL     1       0.242   9.194   6.001  0.00  0.00    +0.000 A 
ENDBRANCH   3   7
BRANCH   1  17
ATOM     14  C   UNL     1       1.091   2.923   0.558  0.00  0.00    +0.000 A 
ATOM     15  C   UNL     1       1.520   2.600   1.834  0.00  0.00    +0.000 A 
ATOM     16  C   UNL     1       1.498   3.687   2.740  0.00  0.00    +0.000 A 
ATOM     17  C   UNL     1       1.438   4.957   2.383  0.00  0.00    +0.000 A 
ATOM     18  C   UNL     1       1.073   5.209   1.089  0.00  0.00    +0.000 A 
ATOM     19  C   UNL     1       0.948   4.188   0.179  0.00  0.00    +0.000 A 
BRANCH  14  21
ATOM     20  C   UNL     1       1.091   0.027  -0.032  0.00  0.00    +0.000 C 
ATOM     21  S   UNL     1       0.487   1.645  -0.573  0.00  0.00    +0.000 S 
ATOM     22  O   UNL     1      -1.043   1.645  -0.573  0.00  0.00    +0.000 OA
ENDBRANCH  14  21
ENDBRANCH   1  17
BRANCH   4  23
ATOM     23  C   UNL     1       4.172   8.195   5.176  0.00  0.00    +0.000 A 
ATOM     24  C   UNL     1       4.191   8.479   6.544  0.00  0.00    +0.000 A 
ATOM     25  C   UNL     1       5.278   9.135   7.087  0.00  0.00    +0.000 A 
ATOM     26  N   UNL     1       6.322   9.537   6.346  0.00  0.00    +0.000 NA
ATOM     27  C   UNL     1       6.289   9.282   5.035  0.00  0.00    +0.000 A 
ATOM     28  C   UNL     1       5.258   8.612   4.417  0.00  0.00    +0.000 A 
ENDBRANCH   4  23
TORSDOF 4
