
 OpenBabel03132512093D

 43 46  0  0  0  0  0  0  0  0999 V2000
    1.0908    0.0271   -0.0320 C   0  0  0  0  0  0  0  0  0  0  0  0
    0.4875    1.6455   -0.5731 S   0  0  0  0  0  0  0  0  0  0  0  0
   -1.0430    1.6455   -0.5731 O   0  0  0  0  0  0  0  0  0  0  0  0
    1.0908    2.9233    0.5579 C   0  0  0  0  0  0  0  0  0  0  0  0
    1.5204    2.5999    1.8344 C   0  0  0  0  0  0  0  0  0  0  0  0
    1.4978    3.6872    2.7395 C   0  0  0  0  0  0  0  0  0  0  0  0
    1.4376    4.9574    2.3830 C   0  0  0  0  0  0  0  0  0  0  0  0
    1.7561    6.0789    3.3583 C   0  0  0  0  0  0  0  0  0  0  0  0
    0.9334    7.0283    3.7208 N   0  0  0  0  0  0  0  0  0  0  0  0
    1.7126    7.9356    4.4450 C   0  0  0  0  0  0  0  0  0  0  0  0
    1.1973    9.2178    5.0782 C   0  0  0  0  0  0  0  0  0  0  0  0
    1.8498   10.3946    4.7498 C   0  0  0  0  0  0  0  0  0  0  0  0
    1.6214   11.4509    5.6630 C   0  0  0  0  0  0  0  0  0  0  0  0
    0.6299   11.4862    6.5346 C   0  0  0  0  0  0  0  0  0  0  0  0
    0.2818   12.6100    7.1550 F   0  0  0  0  0  0  0  0  0  0  0  0
   -0.0197   10.3053    6.7649 C   0  0  0  0  0  0  0  0  0  0  0  0
    0.2424    9.1940    6.0006 C   0  0  0  0  0  0  0  0  0  0  0  0
    3.0027    7.4997    4.4988 C   0  0  0  0  0  0  0  0  0  0  0  0
    4.1720    8.1955    5.1764 C   0  0  0  0  0  0  0  0  0  0  0  0
    4.1907    8.4788    6.5443 C   0  0  0  0  0  0  0  0  0  0  0  0
    5.2777    9.1350    7.0872 C   0  0  0  0  0  0  0  0  0  0  0  0
    6.3225    9.5370    6.3465 N   0  0  0  0  0  0  0  0  0  0  0  0
    6.2893    9.2821    5.0349 C   0  0  0  0  0  0  0  0  0  0  0  0
    5.2582    8.6120    4.4173 C   0  0  0  0  0  0  0  0  0  0  0  0
    3.0366    6.3020    3.8164 N   0  0  0  0  0  0  0  0  0  0  0  0
    1.0733    5.2093    1.0894 C   0  0  0  0  0  0  0  0  0  0  0  0
    0.9476    4.1879    0.1790 C   0  0  0  0  0  0  0  0  0  0  0  0
    0.7341   -0.7283   -0.7006 H   0  0  0  0  0  0  0  0  0  0  0  0
    0.7341   -0.1743    0.9565 H   0  0  0  0  0  0  0  0  0  0  0  0
    2.1608    0.0271   -0.0320 H   0  0  0  0  0  0  0  0  0  0  0  0
    1.8403    1.6170    2.1109 H   0  0  0  0  0  0  0  0  0  0  0  0
    1.5319    3.4649    3.7856 H   0  0  0  0  0  0  0  0  0  0  0  0
    2.4703   10.4957    3.8839 H   0  0  0  0  0  0  0  0  0  0  0  0
    2.2992   12.2787    5.6464 H   0  0  0  0  0  0  0  0  0  0  0  0
   -0.7425   10.2458    7.5516 H   0  0  0  0  0  0  0  0  0  0  0  0
   -0.3282    8.3012    6.1500 H   0  0  0  0  0  0  0  0  0  0  0  0
    3.3694    8.1897    7.1663 H   0  0  0  0  0  0  0  0  0  0  0  0
    5.2876    9.3307    8.1391 H   0  0  0  0  0  0  0  0  0  0  0  0
    7.1082    9.6169    4.4330 H   0  0  0  0  0  0  0  0  0  0  0  0
    5.2927    8.4145    3.3662 H   0  0  0  0  0  0  0  0  0  0  0  0
    3.8486    5.7003    3.6781 H   0  0  0  0  0  0  0  0  0  0  0  0
    0.8835    6.2163    0.7817 H   0  0  0  0  0  0  0  0  0  0  0  0
    0.7323    4.4136   -0.8445 H   0  0  0  0  0  0  0  0  0  0  0  0
  1  2  1  0  0  0  0
  1 28  1  0  0  0  0
  1 29  1  0  0  0  0
  1 30  1  0  0  0  0
  2  3  2  0  0  0  0
  2  4  1  0  0  0  0
  4  5  1  0  0  0  0
  4 27  2  0  0  0  0
  5  6  2  0  0  0  0
  5 31  1  0  0  0  0
  6  7  1  0  0  0  0
  6 32  1  0  0  0  0
  7  8  1  0  0  0  0
  7 26  2  0  0  0  0
  8  9  2  0  0  0  0
  8 25  1  0  0  0  0
  9 10  1  0  0  0  0
 10 11  1  0  0  0  0
 10 18  2  0  0  0  0
 11 12  1  0  0  0  0
 11 17  2  0  0  0  0
 12 13  2  0  0  0  0
 12 33  1  0  0  0  0
 13 14  1  0  0  0  0
 13 34  1  0  0  0  0
 14 15  1  0  0  0  0
 14 16  2  0  0  0  0
 16 17  1  0  0  0  0
 16 35  1  0  0  0  0
 17 36  1  0  0  0  0
 18 19  1  0  0  0  0
 18 25  1  0  0  0  0
 19 20  1  0  0  0  0
 19 24  2  0  0  0  0
 20 21  2  0  0  0  0
 20 37  1  0  0  0  0
 21 22  1  0  0  0  0
 21 38  1  0  0  0  0
 22 23  2  0  0  0  0
 23 24  1  0  0  0  0
 23 39  1  0  0  0  0
 24 40  1  0  0  0  0
 25 41  1  0  0  0  0
 26 27  1  0  0  0  0
 26 42  1  0  0  0  0
 27 43  1  0  0  0  0
M  END
