REMARK  Name = 
REMARK  4 active torsions:
REMARK  status: ('A' for Active; 'I' for Inactive)
REMARK    1  A    between atoms: C_2  and  C_4
REMARK    2  A    between atoms: C_7  and  C_8
REMARK    3  A    between atoms: C_10  and  C_11
REMARK    4  A    between atoms: C_20  and  C_21
REMARK                            x       y       z     vdW  Elec       q    Type
REMARK                         _______ _______ _______ _____ _____    ______ ____
ROOT
ATOM      1  C   UNL     1       3.014  -1.014  -6.319  0.00  0.00    +0.000 A 
ATOM      2  N   UNL     1       3.201  -2.158  -6.924  0.00  0.00    +0.000 NA
ATOM      3  C   UNL     1       3.959  -1.856  -8.059  0.00  0.00    +0.000 A 
ATOM      4  C   UNL     1       4.211  -0.518  -8.107  0.00  0.00    +0.000 A 
ATOM      5  N   UNL     1       3.596   0.033  -7.002  0.00  0.00    +0.000 N 
ATOM      6  H   UNL     1       3.577   1.018  -6.742  0.00  0.00    +0.000 HD
ENDROOT
BRANCH   3   7
ATOM      7  C   UNL     1       4.432  -2.871  -9.088  0.00  0.00    +0.000 A 
ATOM      8  C   UNL     1       5.804  -3.056  -9.126  0.00  0.00    +0.000 A 
ATOM      9  C   UNL     1       6.241  -3.892 -10.180  0.00  0.00    +0.000 A 
ATOM     10  C   UNL     1       5.461  -4.720 -10.852  0.00  0.00    +0.000 A 
ATOM     11  C   UNL     1       4.114  -4.528 -10.719  0.00  0.00    +0.000 A 
ATOM     12  C   UNL     1       3.614  -3.634  -9.803  0.00  0.00    +0.000 A 
ATOM     13  O   UNL     1       3.218  -5.264 -11.539  0.00  0.00    +0.000 OA
ATOM     14  C   UNL     1       1.817  -5.073 -11.409  0.00  0.00    +0.000 C 
ATOM     15  O   UNL     1       5.993  -5.753 -11.668  0.00  0.00    +0.000 OA
ENDBRANCH   3   7
BRANCH   1  19
ATOM     16  C   UNL     1       0.961  -0.383  -2.627  0.00  0.00    +0.000 A 
ATOM     17  C   UNL     1       0.568   0.344  -3.739  0.00  0.00    +0.000 A 
ATOM     18  C   UNL     1       1.158  -0.095  -4.949  0.00  0.00    +0.000 A 
ATOM     19  C   UNL     1       2.235  -0.855  -5.024  0.00  0.00    +0.000 A 
ATOM     20  C   UNL     1       2.611  -1.493  -3.874  0.00  0.00    +0.000 A 
ATOM     21  C   UNL     1       1.996  -1.214  -2.678  0.00  0.00    +0.000 A 
BRANCH  16  23
ATOM     22  N   UNL     1       0.936  -0.049  -0.060  0.00  0.00    +0.000 N 
ATOM     23  C   UNL     1       0.201  -0.213  -1.322  0.00  0.00    +0.000 C 
ATOM     24  O   UNL     1      -1.070  -0.213  -1.322  0.00  0.00    +0.000 OA
ATOM     25  H   UNL     1       0.426   0.065   0.816  0.00  0.00    +0.000 HD
ATOM     26  H   UNL     1       1.956  -0.049  -0.060  0.00  0.00    +0.000 HD
ENDBRANCH  16  23
ENDBRANCH   1  19
BRANCH   4  27
ATOM     27  C   UNL     1       5.011   0.221  -9.167  0.00  0.00    +0.000 A 
ATOM     28  C   UNL     1       4.536   0.131 -10.461  0.00  0.00    +0.000 A 
ATOM     29  C   UNL     1       5.290   0.666 -11.508  0.00  0.00    +0.000 A 
ATOM     30  C   UNL     1       6.490   1.288 -11.186  0.00  0.00    +0.000 A 
ATOM     31  C   UNL     1       6.876   1.356  -9.867  0.00  0.00    +0.000 A 
ATOM     32  N   UNL     1       6.170   0.827  -8.864  0.00  0.00    +0.000 NA
ENDBRANCH   4  27
TORSDOF 4
