REMARK  Name = 
REMARK  4 active torsions:
REMARK  status: ('A' for Active; 'I' for Inactive)
REMARK    1  A    between atoms: C_2  and  C_4
REMARK    2  A    between atoms: C_7  and  C_8
REMARK    3  A    between atoms: C_10  and  C_11
REMARK    4  A    between atoms: C_20  and  C_21
REMARK                            x       y       z     vdW  Elec       q    Type
REMARK                         _______ _______ _______ _____ _____    ______ ____
ROOT
ATOM      1  C   UNL     1       3.079   6.005  -1.644  0.00  0.00    +0.000 A 
ATOM      2  N   UNL     1       3.286   6.502  -2.836  0.00  0.00    +0.000 NA
ATOM      3  C   UNL     1       4.054   7.652  -2.629  0.00  0.00    +0.000 A 
ATOM      4  C   UNL     1       4.292   7.817  -1.297  0.00  0.00    +0.000 A 
ATOM      5  N   UNL     1       3.658   6.773  -0.657  0.00  0.00    +0.000 N 
ATOM      6  H   UNL     1       3.624   6.603   0.348  0.00  0.00    +0.000 HD
ENDROOT
BRANCH   3   7
ATOM      7  C   UNL     1       4.550   8.579  -3.726  0.00  0.00    +0.000 A 
ATOM      8  C   UNL     1       5.889   8.717  -4.053  0.00  0.00    +0.000 A 
ATOM      9  C   UNL     1       6.144   9.718  -5.019  0.00  0.00    +0.000 A 
ATOM     10  C   UNL     1       5.229  10.237  -5.819  0.00  0.00    +0.000 A 
ATOM     11  C   UNL     1       3.925  10.008  -5.480  0.00  0.00    +0.000 A 
ATOM     12  C   UNL     1       3.600   9.143  -4.462  0.00  0.00    +0.000 A 
ATOM     13  O   UNL     1       2.890  10.672  -6.190  0.00  0.00    +0.000 OA
ATOM     14  C   UNL     1       1.532  10.442  -5.846  0.00  0.00    +0.000 C 
ATOM     15  O   UNL     1       5.582  10.992  -6.968  0.00  0.00    +0.000 OA
ENDBRANCH   3   7
BRANCH   1  19
ATOM     16  C   UNL     1       0.986   2.433  -0.594  0.00  0.00    +0.000 A 
ATOM     17  C   UNL     1       0.610   3.624   0.004  0.00  0.00    +0.000 A 
ATOM     18  C   UNL     1       1.211   4.769  -0.570  0.00  0.00    +0.000 A 
ATOM     19  C   UNL     1       2.285   4.746  -1.338  0.00  0.00    +0.000 A 
ATOM     20  C   UNL     1       2.645   3.527  -1.843  0.00  0.00    +0.000 A 
ATOM     21  C   UNL     1       2.017   2.377  -1.429  0.00  0.00    +0.000 A 
BRANCH  16  23
ATOM     22  N   UNL     1       0.961  -0.091  -0.016  0.00  0.00    +0.000 N 
ATOM     23  C   UNL     1       0.226   1.150  -0.300  0.00  0.00    +0.000 C 
ATOM     24  O   UNL     1      -1.045   1.150  -0.300  0.00  0.00    +0.000 OA
ATOM     25  H   UNL     1       0.451  -0.952   0.182  0.00  0.00    +0.000 HD
ATOM     26  H   UNL     1       1.981  -0.091  -0.016  0.00  0.00    +0.000 HD
ENDBRANCH  16  23
ENDBRANCH   1  19
BRANCH   4  27
ATOM     27  C   UNL     1       5.096   8.931  -0.647  0.00  0.00    +0.000 A 
ATOM     28  C   UNL     1       4.620  10.208  -0.872  0.00  0.00    +0.000 A 
ATOM     29  C   UNL     1       5.259  11.295  -0.271  0.00  0.00    +0.000 A 
ATOM     30  C   UNL     1       6.346  11.029   0.552  0.00  0.00    +0.000 A 
ATOM     31  C   UNL     1       6.739   9.724   0.742  0.00  0.00    +0.000 A 
ATOM     32  N   UNL     1       6.146   8.682   0.152  0.00  0.00    +0.000 NA
ENDBRANCH   4  27
TORSDOF 4
