REMARK  Name = 
REMARK  6 active torsions:
REMARK  status: ('A' for Active; 'I' for Inactive)
REMARK    1  A    between atoms: N_1  and  C_2
REMARK    2  A    between atoms: C_2  and  C_3
REMARK    3  A    between atoms: C_6  and  C_7
REMARK    4  A    between atoms: C_9  and  C_10
REMARK    5  A    between atoms: C_15  and  O_16
REMARK    6  A    between atoms: C_18  and  C_19
REMARK                            x       y       z     vdW  Elec       q    Type
REMARK                         _______ _______ _______ _____ _____    ______ ____
ROOT
ATOM      1  C   UNL     1       1.870  -6.205   1.243  0.00  0.00    +0.000 A 
ATOM      2  N   UNL     1       1.475  -6.602   2.425  0.00  0.00    +0.000 NA
ATOM      3  C   UNL     1       2.135  -7.814   2.647  0.00  0.00    +0.000 A 
ATOM      4  C   UNL     1       2.922  -8.117   1.577  0.00  0.00    +0.000 A 
ATOM      5  N   UNL     1       2.747  -7.098   0.665  0.00  0.00    +0.000 N 
ATOM      6  H   UNL     1       3.181  -7.019  -0.255  0.00  0.00    +0.000 HD
ENDROOT
BRANCH   3   7
ATOM      7  C   UNL     1       1.996  -8.667   3.898  0.00  0.00    +0.000 A 
ATOM      8  C   UNL     1       3.154  -8.983   4.590  0.00  0.00    +0.000 A 
ATOM      9  C   UNL     1       3.007 -10.065   5.490  0.00  0.00    +0.000 A 
ATOM     10  C   UNL     1       1.848 -10.519   5.932  0.00  0.00    +0.000 A 
ATOM     11 CL   UNL     1       1.741 -11.598   7.344  0.00  0.00    +0.000 Cl
ATOM     12  C   UNL     1       0.736 -10.116   5.247  0.00  0.00    +0.000 A 
ATOM     13  C   UNL     1       0.819  -9.159   4.265  0.00  0.00    +0.000 A 
BRANCH  12  14
ATOM     14  O   UNL     1      -0.524 -10.695   5.555  0.00  0.00    +0.000 OA
ATOM     15  H   UNL     1      -1.342 -10.406   5.059  0.00  0.00    +0.000 HD
ENDBRANCH  12  14
ENDBRANCH   3   7
BRANCH   1  19
ATOM     16  C   UNL     1       0.940  -2.371  -0.392  0.00  0.00    +0.000 A 
ATOM     17  C   UNL     1       0.628  -3.502  -1.129  0.00  0.00    +0.000 A 
ATOM     18  C   UNL     1       0.773  -4.712  -0.411  0.00  0.00    +0.000 A 
ATOM     19  C   UNL     1       1.467  -4.842   0.705  0.00  0.00    +0.000 A 
ATOM     20  C   UNL     1       1.803  -3.685   1.351  0.00  0.00    +0.000 A 
ATOM     21  C   UNL     1       1.574  -2.460   0.771  0.00  0.00    +0.000 A 
BRANCH  16  22
ATOM     22  C   UNL     1       0.433  -1.036  -0.912  0.00  0.00    +0.000 C 
BRANCH  22  23
ATOM     23  N   UNL     1       0.923   0.046  -0.045  0.00  0.00    +0.000 NA
ATOM     24  H   UNL     1       0.583  -0.100   0.906  0.00  0.00    +0.000 HD
ATOM     25  H   UNL     1       1.943   0.046  -0.045  0.00  0.00    +0.000 HD
ENDBRANCH  22  23
ENDBRANCH  16  22
ENDBRANCH   1  19
BRANCH   4  26
ATOM     26  C   UNL     1       3.816  -9.337   1.419  0.00  0.00    +0.000 A 
ATOM     27  C   UNL     1       3.278 -10.626   1.455  0.00  0.00    +0.000 A 
ATOM     28  C   UNL     1       4.112 -11.714   1.288  0.00  0.00    +0.000 A 
ATOM     29  N   UNL     1       5.437 -11.589   1.111  0.00  0.00    +0.000 NA
ATOM     30  C   UNL     1       5.948 -10.354   1.099  0.00  0.00    +0.000 A 
ATOM     31  C   UNL     1       5.187  -9.215   1.232  0.00  0.00    +0.000 A 
ENDBRANCH   4  26
TORSDOF 6
