
 OpenBabel03132512093D

 44 47  0  0  0  0  0  0  0  0999 V2000
    0.9231    0.0456   -0.0448 N   0  0  0  0  0  0  0  0  0  0  0  0
    0.4331   -1.0356   -0.9119 C   0  0  0  0  0  0  0  0  0  0  0  0
    0.9397   -2.3711   -0.3920 C   0  0  0  0  0  0  0  0  0  0  0  0
    0.6283   -3.5017   -1.1292 C   0  0  0  0  0  0  0  0  0  0  0  0
    0.7734   -4.7121   -0.4110 C   0  0  0  0  0  0  0  0  0  0  0  0
    1.4669   -4.8422    0.7053 C   0  0  0  0  0  0  0  0  0  0  0  0
    1.8702   -6.2054    1.2433 C   0  0  0  0  0  0  0  0  0  0  0  0
    1.4746   -6.6023    2.4246 N   0  0  0  0  0  0  0  0  0  0  0  0
    2.1353   -7.8142    2.6475 C   0  0  0  0  0  0  0  0  0  0  0  0
    1.9965   -8.6670    3.8981 C   0  0  0  0  0  0  0  0  0  0  0  0
    3.1541   -8.9829    4.5900 C   0  0  0  0  0  0  0  0  0  0  0  0
    3.0070  -10.0648    5.4898 C   0  0  0  0  0  0  0  0  0  0  0  0
    1.8484  -10.5189    5.9321 C   0  0  0  0  0  0  0  0  0  0  0  0
    1.7411  -11.5976    7.3439 Cl  0  0  0  0  0  0  0  0  0  0  0  0
    0.7358  -10.1159    5.2472 C   0  0  0  0  0  0  0  0  0  0  0  0
   -0.5236  -10.6952    5.5551 O   0  0  0  0  0  0  0  0  0  0  0  0
    0.8188   -9.1585    4.2652 C   0  0  0  0  0  0  0  0  0  0  0  0
    2.9223   -8.1173    1.5769 C   0  0  0  0  0  0  0  0  0  0  0  0
    3.8155   -9.3369    1.4191 C   0  0  0  0  0  0  0  0  0  0  0  0
    3.2784  -10.6262    1.4552 C   0  0  0  0  0  0  0  0  0  0  0  0
    4.1123  -11.7142    1.2885 C   0  0  0  0  0  0  0  0  0  0  0  0
    5.4369  -11.5886    1.1115 N   0  0  0  0  0  0  0  0  0  0  0  0
    5.9481  -10.3537    1.0992 C   0  0  0  0  0  0  0  0  0  0  0  0
    5.1867   -9.2152    1.2325 C   0  0  0  0  0  0  0  0  0  0  0  0
    2.7471   -7.0977    0.6653 N   0  0  0  0  0  0  0  0  0  0  0  0
    1.8026   -3.6848    1.3510 C   0  0  0  0  0  0  0  0  0  0  0  0
    1.5738   -2.4602    0.7713 C   0  0  0  0  0  0  0  0  0  0  0  0
    0.5831   -0.1004    0.9057 H   0  0  0  0  0  0  0  0  0  0  0  0
    1.9431    0.0456   -0.0448 H   0  0  0  0  0  0  0  0  0  0  0  0
   -0.6369   -1.0356   -0.9119 H   0  0  0  0  0  0  0  0  0  0  0  0
    0.7897   -0.8825   -1.9090 H   0  0  0  0  0  0  0  0  0  0  0  0
    0.3072   -3.4631   -2.1491 H   0  0  0  0  0  0  0  0  0  0  0  0
    0.2874   -5.5827   -0.7994 H   0  0  0  0  0  0  0  0  0  0  0  0
    4.0760   -8.4565    4.4561 H   0  0  0  0  0  0  0  0  0  0  0  0
    3.8962  -10.5488    5.8361 H   0  0  0  0  0  0  0  0  0  0  0  0
   -1.3419  -10.4057    5.0586 H   0  0  0  0  0  0  0  0  0  0  0  0
   -0.0737   -8.8057    3.7919 H   0  0  0  0  0  0  0  0  0  0  0  0
    2.2295  -10.7693    1.6108 H   0  0  0  0  0  0  0  0  0  0  0  0
    3.6860  -12.6956    1.3009 H   0  0  0  0  0  0  0  0  0  0  0  0
    7.0057  -10.2445    0.9792 H   0  0  0  0  0  0  0  0  0  0  0  0
    5.6448   -8.2491    1.1930 H   0  0  0  0  0  0  0  0  0  0  0  0
    3.1807   -7.0194   -0.2546 H   0  0  0  0  0  0  0  0  0  0  0  0
    2.2500   -3.7332    2.3218 H   0  0  0  0  0  0  0  0  0  0  0  0
    1.9096   -1.5705    1.2616 H   0  0  0  0  0  0  0  0  0  0  0  0
  1  2  1  0  0  0  0
  1 28  1  0  0  0  0
  1 29  1  0  0  0  0
  2  3  1  0  0  0  0
  2 30  1  0  0  0  0
  2 31  1  0  0  0  0
  3  4  1  0  0  0  0
  3 27  2  0  0  0  0
  4  5  2  0  0  0  0
  4 32  1  0  0  0  0
  5  6  1  0  0  0  0
  5 33  1  0  0  0  0
  6  7  1  0  0  0  0
  6 26  2  0  0  0  0
  7  8  2  0  0  0  0
  7 25  1  0  0  0  0
  8  9  1  0  0  0  0
  9 10  1  0  0  0  0
  9 18  2  0  0  0  0
 10 11  1  0  0  0  0
 10 17  2  0  0  0  0
 11 12  2  0  0  0  0
 11 34  1  0  0  0  0
 12 13  1  0  0  0  0
 12 35  1  0  0  0  0
 13 14  1  0  0  0  0
 13 15  2  0  0  0  0
 15 16  1  0  0  0  0
 15 17  1  0  0  0  0
 16 36  1  0  0  0  0
 17 37  1  0  0  0  0
 18 19  1  0  0  0  0
 18 25  1  0  0  0  0
 19 20  1  0  0  0  0
 19 24  2  0  0  0  0
 20 21  2  0  0  0  0
 20 38  1  0  0  0  0
 21 22  1  0  0  0  0
 21 39  1  0  0  0  0
 22 23  2  0  0  0  0
 23 24  1  0  0  0  0
 23 40  1  0  0  0  0
 24 41  1  0  0  0  0
 25 42  1  0  0  0  0
 26 27  1  0  0  0  0
 26 43  1  0  0  0  0
 27 44  1  0  0  0  0
M  END
