REMARK  Name = 
REMARK  3 active torsions:
REMARK  status: ('A' for Active; 'I' for Inactive)
REMARK    1  A    between atoms: C_1  and  N_2
REMARK    2  A    between atoms: C_5  and  C_6
REMARK    3  A    between atoms: C_15  and  C_16
REMARK                            x       y       z     vdW  Elec       q    Type
REMARK                         _______ _______ _______ _____ _____    ______ ____
ROOT
ATOM      1  C   UNL     1       3.284  -0.021   0.187  0.00  0.00    +0.000 C 
ATOM      2  O   UNL     1       4.237  -0.029  -0.655  0.00  0.00    +0.000 OA
ATOM      3  N   UNL     1       3.576  -0.022   1.627  0.00  0.00    +0.000 N 
ATOM      4  C   UNL     1       2.474  -0.013   2.600  0.00  0.00    +0.000 A 
ATOM      5  N   UNL     1       2.398   0.732   3.664  0.00  0.00    +0.000 NA
ATOM      6  N   UNL     1       1.209   0.472   4.352  0.00  0.00    +0.000 N 
ATOM      7  C   UNL     1       0.501  -0.497   3.671  0.00  0.00    +0.000 A 
ATOM      8  N   UNL     1      -0.719  -1.126   3.892  0.00  0.00    +0.000 NA
ATOM      9  N   UNL     1      -1.173  -2.076   3.004  0.00  0.00    +0.000 NA
ATOM     10  C   UNL     1      -0.413  -2.423   1.887  0.00  0.00    +0.000 A 
ATOM     11  C   UNL     1       0.801  -1.808   1.652  0.00  0.00    +0.000 A 
ATOM     12  C   UNL     1       1.269  -0.839   2.544  0.00  0.00    +0.000 A 
ATOM     13  H   UNL     1       4.543  -0.030   1.952  0.00  0.00    +0.000 HD
ATOM     14  H   UNL     1       0.913   0.925   5.217  0.00  0.00    +0.000 HD
ENDROOT
BRANCH   1  19
ATOM     15  C   UNL     1      -2.384   0.007  -0.116  0.00  0.00    +0.000 C 
ATOM     16  N   UNL     1      -0.981   0.004   0.310  0.00  0.00    +0.000 NA
ATOM     17  C   UNL     1      -0.305   1.205  -0.194  0.00  0.00    +0.000 C 
ATOM     18  C   UNL     1       1.165   1.238   0.219  0.00  0.00    +0.000 C 
ATOM     19  C   UNL     1       1.843  -0.009  -0.297  0.00  0.00    +0.000 C 
ATOM     20  C   UNL     1       1.146  -1.241   0.219  0.00  0.00    +0.000 C 
ATOM     21  C   UNL     1      -0.322  -1.204  -0.192  0.00  0.00    +0.000 C 
ENDBRANCH   1  19
BRANCH  10  22
ATOM     22  C   UNL     1      -0.923  -3.483   0.925  0.00  0.00    +0.000 A 
ATOM     23  C   UNL     1      -0.043  -4.530   0.673  0.00  0.00    +0.000 A 
ATOM     24  C   UNL     1      -0.599  -5.700   0.109  0.00  0.00    +0.000 A 
ATOM     25  C   UNL     1      -1.642  -5.514  -0.797  0.00  0.00    +0.000 A 
ATOM     26  C   UNL     1      -2.341  -4.401  -0.725  0.00  0.00    +0.000 A 
ATOM     27  C   UNL     1      -2.045  -3.432   0.240  0.00  0.00    +0.000 A 
ENDBRANCH  10  22
TORSDOF 2
