REMARK  Name = 
REMARK  4 active torsions:
REMARK  status: ('A' for Active; 'I' for Inactive)
REMARK    1  A    between atoms: C_1  and  C_2
REMARK    2  A    between atoms: C_2  and  N_3
REMARK    3  A    between atoms: C_6  and  C_7
REMARK    4  A    between atoms: C_16  and  C_17
REMARK                            x       y       z     vdW  Elec       q    Type
REMARK                         _______ _______ _______ _____ _____    ______ ____
ROOT
ATOM      1  C   UNL     1       1.323  -5.583  -3.235  0.00  0.00    +0.000 C 
ATOM      2  O   UNL     1       0.672  -6.580  -3.680  0.00  0.00    +0.000 OA
ATOM      3  N   UNL     1       2.781  -5.670  -3.073  0.00  0.00    +0.000 N 
ATOM      4  C   UNL     1       3.534  -4.517  -2.559  0.00  0.00    +0.000 A 
ATOM      5  N   UNL     1       4.611  -4.063  -3.131  0.00  0.00    +0.000 NA
ATOM      6  N   UNL     1       5.069  -2.924  -2.462  0.00  0.00    +0.000 N 
ATOM      7  C   UNL     1       4.222  -2.654  -1.406  0.00  0.00    +0.000 A 
ATOM      8  N   UNL     1       4.193  -1.667  -0.427  0.00  0.00    +0.000 NA
ATOM      9  N   UNL     1       3.188  -1.660   0.514  0.00  0.00    +0.000 NA
ATOM     10  C   UNL     1       2.200  -2.644   0.501  0.00  0.00    +0.000 A 
ATOM     11  C   UNL     1       2.211  -3.632  -0.464  0.00  0.00    +0.000 A 
ATOM     12  C   UNL     1       3.225  -3.645  -1.427  0.00  0.00    +0.000 A 
ATOM     13  H   UNL     1       3.271  -6.531  -3.317  0.00  0.00    +0.000 HD
ATOM     14  H   UNL     1       5.895  -2.381  -2.713  0.00  0.00    +0.000 HD
ENDROOT
BRANCH  10  15
ATOM     15  C   UNL     1       1.104  -2.630   1.555  0.00  0.00    +0.000 A 
ATOM     16  C   UNL     1       0.933  -3.705   2.420  0.00  0.00    +0.000 A 
ATOM     17  C   UNL     1       0.283  -3.434   3.644  0.00  0.00    +0.000 A 
ATOM     18  C   UNL     1      -0.734  -2.481   3.606  0.00  0.00    +0.000 A 
ATOM     19  C   UNL     1      -0.719  -1.590   2.636  0.00  0.00    +0.000 A 
ATOM     20  F   UNL     1      -1.679  -0.672   2.573  0.00  0.00    +0.000 F 
ATOM     21  C   UNL     1       0.295  -1.599   1.672  0.00  0.00    +0.000 A 
ATOM     22  F   UNL     1       0.442  -0.553   0.864  0.00  0.00    +0.000 F 
ENDBRANCH  10  15
BRANCH   1  26
ATOM     23  N   UNL     1       0.904  -1.595  -1.850  0.00  0.00    +0.000 NA
ATOM     24  C   UNL     1       0.277  -2.636  -1.027  0.00  0.00    +0.000 C 
ATOM     25  C   UNL     1       0.822  -4.000  -1.391  0.00  0.00    +0.000 C 
ATOM     26  C   UNL     1       0.593  -4.301  -2.871  0.00  0.00    +0.000 C 
ATOM     27  C   UNL     1       1.132  -3.159  -3.731  0.00  0.00    +0.000 C 
ATOM     28  C   UNL     1       0.578  -1.826  -3.256  0.00  0.00    +0.000 C 
BRANCH  23  30
ATOM     29  C   UNL     1       0.921   0.045  -0.041  0.00  0.00    +0.000 C 
ATOM     30  C   UNL     1       0.414  -0.271  -1.439  0.00  0.00    +0.000 C 
ENDBRANCH  23  30
ENDBRANCH   1  26
TORSDOF 3
