
 OpenBabel03132514253D

 48 51  0  0  0  0  0  0  0  0999 V2000
    0.9233    0.0230    0.0599 C   0  0  0  0  0  0  0  0  0  0  0  0
    0.4167   -0.4079    1.4267 C   0  0  0  0  0  0  0  0  0  0  0  0
    0.9067    0.5285    2.4485 N   0  0  0  0  0  0  0  0  0  0  0  0
    2.3538    0.4947    2.6959 C   0  0  0  0  0  0  0  0  0  0  0  0
    2.7224    1.4407    3.8182 C   0  0  0  0  0  0  0  0  0  0  0  0
    2.2851    2.8673    3.4934 C   0  0  0  0  0  0  0  0  0  0  0  0
    2.4959    3.7418    4.7187 C   0  0  0  0  0  0  0  0  0  0  0  0
    3.2765    4.7429    4.6582 O   0  0  0  0  0  0  0  0  0  0  0  0
    1.7968    3.4296    5.9736 N   0  0  0  0  0  0  0  0  0  0  0  0
    0.8940    2.2716    6.0435 C   0  0  0  0  0  0  0  0  0  0  0  0
   -0.2898    2.2571    6.5829 N   0  0  0  0  0  0  0  0  0  0  0  0
   -0.8583    0.9852    6.4647 N   0  0  0  0  0  0  0  0  0  0  0  0
    0.0302    0.1568    5.8099 C   0  0  0  0  0  0  0  0  0  0  0  0
   -0.0071   -1.1795    5.4284 N   0  0  0  0  0  0  0  0  0  0  0  0
    1.0634   -1.7355    4.7647 N   0  0  0  0  0  0  0  0  0  0  0  0
    2.1949   -0.9708    4.4794 C   0  0  0  0  0  0  0  0  0  0  0  0
    3.3733   -1.6038    3.7575 C   0  0  0  0  0  0  0  0  0  0  0  0
    4.6487   -1.6278    4.3113 C   0  0  0  0  0  0  0  0  0  0  0  0
    5.5356   -2.6075    3.8116 C   0  0  0  0  0  0  0  0  0  0  0  0
    5.4257   -2.9054    2.4545 C   0  0  0  0  0  0  0  0  0  0  0  0
    4.2823   -2.6585    1.8511 C   0  0  0  0  0  0  0  0  0  0  0  0
    4.1507   -2.9296    0.5557 F   0  0  0  0  0  0  0  0  0  0  0  0
    3.2036   -2.1140    2.5567 C   0  0  0  0  0  0  0  0  0  0  0  0
    1.9925   -2.1123    2.0071 F   0  0  0  0  0  0  0  0  0  0  0  0
    2.2492    0.3582    4.8497 C   0  0  0  0  0  0  0  0  0  0  0  0
    1.1654    0.9339    5.5198 C   0  0  0  0  0  0  0  0  0  0  0  0
    0.8061    2.8918    3.1120 C   0  0  0  0  0  0  0  0  0  0  0  0
    0.5187    1.8719    2.0226 C   0  0  0  0  0  0  0  0  0  0  0  0
    0.5667    1.0079   -0.1584 H   0  0  0  0  0  0  0  0  0  0  0  0
    0.5667   -0.6586   -0.6838 H   0  0  0  0  0  0  0  0  0  0  0  0
    1.9933    0.0230    0.0599 H   0  0  0  0  0  0  0  0  0  0  0  0
   -0.6533   -0.4079    1.4267 H   0  0  0  0  0  0  0  0  0  0  0  0
    0.7733   -1.3928    1.6451 H   0  0  0  0  0  0  0  0  0  0  0  0
    2.8641    0.7986    1.8059 H   0  0  0  0  0  0  0  0  0  0  0  0
    2.6418   -0.5000    2.9651 H   0  0  0  0  0  0  0  0  0  0  0  0
    3.7853    1.4283    3.9410 H   0  0  0  0  0  0  0  0  0  0  0  0
    2.2388    1.1222    4.7180 H   0  0  0  0  0  0  0  0  0  0  0  0
    2.8672    3.2379    2.6756 H   0  0  0  0  0  0  0  0  0  0  0  0
    1.9382    4.0164    6.7958 H   0  0  0  0  0  0  0  0  0  0  0  0
   -1.7800    0.7138    6.8069 H   0  0  0  0  0  0  0  0  0  0  0  0
    4.9431   -0.9400    5.0762 H   0  0  0  0  0  0  0  0  0  0  0  0
    6.2520   -3.0938    4.4402 H   0  0  0  0  0  0  0  0  0  0  0  0
    6.2503   -3.3245    1.9166 H   0  0  0  0  0  0  0  0  0  0  0  0
    3.1158    0.9443    4.6252 H   0  0  0  0  0  0  0  0  0  0  0  0
    0.2228    2.6487    3.9753 H   0  0  0  0  0  0  0  0  0  0  0  0
    0.5507    3.8681    2.7561 H   0  0  0  0  0  0  0  0  0  0  0  0
   -0.5320    1.8757    1.8203 H   0  0  0  0  0  0  0  0  0  0  0  0
    1.0702    2.1335    1.1438 H   0  0  0  0  0  0  0  0  0  0  0  0
  1  2  1  0  0  0  0
  1 29  1  0  0  0  0
  1 30  1  0  0  0  0
  1 31  1  0  0  0  0
  2  3  1  0  0  0  0
  2 32  1  0  0  0  0
  2 33  1  0  0  0  0
  3  4  1  0  0  0  0
  3 28  1  0  0  0  0
  4  5  1  0  0  0  0
  4 34  1  0  0  0  0
  4 35  1  0  0  0  0
  5  6  1  0  0  0  0
  5 36  1  0  0  0  0
  5 37  1  0  0  0  0
  6  7  1  0  0  0  0
  6 27  1  0  0  0  0
  6 38  1  0  0  0  0
  7  8  2  0  0  0  0
  7  9  1  0  0  0  0
  9 10  1  0  0  0  0
  9 39  1  0  0  0  0
 10 11  2  0  0  0  0
 10 26  1  0  0  0  0
 11 12  1  0  0  0  0
 12 13  1  0  0  0  0
 12 40  1  0  0  0  0
 13 14  1  0  0  0  0
 13 26  2  0  0  0  0
 14 15  2  0  0  0  0
 15 16  1  0  0  0  0
 16 17  1  0  0  0  0
 16 25  2  0  0  0  0
 17 18  1  0  0  0  0
 17 23  2  0  0  0  0
 18 19  2  0  0  0  0
 18 41  1  0  0  0  0
 19 20  1  0  0  0  0
 19 42  1  0  0  0  0
 20 21  2  0  0  0  0
 20 43  1  0  0  0  0
 21 22  1  0  0  0  0
 21 23  1  0  0  0  0
 23 24  1  0  0  0  0
 25 26  1  0  0  0  0
 25 44  1  0  0  0  0
 27 28  1  0  0  0  0
 27 45  1  0  0  0  0
 27 46  1  0  0  0  0
 28 47  1  0  0  0  0
 28 48  1  0  0  0  0
M  END
