
 OpenBabel03132514253D

 39 42  0  0  0  0  0  0  0  0999 V2000
    2.2370    0.0050   -0.0110 O   0  0  0  0  0  0  0  0  0  0  0  0
    0.8850   -0.0250   -0.0010 C   0  0  0  0  0  0  0  0  0  0  0  0
    0.2240    1.1800    0.0160 C   0  0  0  0  0  0  0  0  0  0  0  0
   -1.1570    1.2120    0.0000 C   0  0  0  0  0  0  0  0  0  0  0  0
   -1.8770    0.0420   -0.0140 C   0  0  0  0  0  0  0  0  0  0  0  0
   -1.2260   -1.1720   -0.0010 C   0  0  0  0  0  0  0  0  0  0  0  0
   -2.0385   -2.4566   -0.0041 C   0  0  0  0  0  0  0  0  0  0  0  0
   -1.9952   -3.4365    0.9923 N   0  0  0  0  0  0  0  0  0  0  0  0
   -2.8357   -4.3601    0.6053 C   0  0  0  0  0  0  0  0  0  0  0  0
   -3.1303   -5.6256    1.3941 C   0  0  0  0  0  0  0  0  0  0  0  0
   -3.0116   -6.8508    0.7590 C   0  0  0  0  0  0  0  0  0  0  0  0
   -3.7155   -7.8985    1.3984 C   0  0  0  0  0  0  0  0  0  0  0  0
   -4.1459   -7.8593    2.6462 C   0  0  0  0  0  0  0  0  0  0  0  0
   -4.1751   -6.6285    3.2410 C   0  0  0  0  0  0  0  0  0  0  0  0
   -3.6246   -5.5318    2.6230 C   0  0  0  0  0  0  0  0  0  0  0  0
   -3.4231   -4.0508   -0.6025 N   0  0  0  0  0  0  0  0  0  0  0  0
   -2.9179   -2.8242   -0.9782 C   0  0  0  0  0  0  0  0  0  0  0  0
   -3.2714   -2.0381   -2.2302 C   0  0  0  0  0  0  0  0  0  0  0  0
   -2.2654   -1.7247   -3.1477 C   0  0  0  0  0  0  0  0  0  0  0  0
   -2.6062   -1.1735   -4.3672 C   0  0  0  0  0  0  0  0  0  0  0  0
   -3.8758   -0.9022   -4.7077 N   0  0  0  0  0  0  0  0  0  0  0  0
   -4.8321   -1.1844   -3.8175 C   0  0  0  0  0  0  0  0  0  0  0  0
   -4.5830   -1.7571   -2.5913 C   0  0  0  0  0  0  0  0  0  0  0  0
    0.1710   -1.2410    0.0150 C   0  0  0  0  0  0  0  0  0  0  0  0
    2.7560   -0.8497   -0.0234 H   0  0  0  0  0  0  0  0  0  0  0  0
    0.7796    2.0941    0.0416 H   0  0  0  0  0  0  0  0  0  0  0  0
   -1.6681    2.1520   -0.0015 H   0  0  0  0  0  0  0  0  0  0  0  0
   -2.9463    0.0738   -0.0351 H   0  0  0  0  0  0  0  0  0  0  0  0
   -2.4395   -6.9921   -0.1341 H   0  0  0  0  0  0  0  0  0  0  0  0
   -3.9128   -8.7842    0.8314 H   0  0  0  0  0  0  0  0  0  0  0  0
   -4.4552   -8.7431    3.1640 H   0  0  0  0  0  0  0  0  0  0  0  0
   -4.6333   -6.5178    4.2016 H   0  0  0  0  0  0  0  0  0  0  0  0
   -3.5938   -4.5936    3.1366 H   0  0  0  0  0  0  0  0  0  0  0  0
   -4.0980   -4.6171   -1.1165 H   0  0  0  0  0  0  0  0  0  0  0  0
   -1.2394   -1.9103   -2.9075 H   0  0  0  0  0  0  0  0  0  0  0  0
   -1.8278   -0.9541   -5.0679 H   0  0  0  0  0  0  0  0  0  0  0  0
   -5.8452   -0.9527   -4.0719 H   0  0  0  0  0  0  0  0  0  0  0  0
   -5.3890   -1.9830   -1.9248 H   0  0  0  0  0  0  0  0  0  0  0  0
    0.6794   -2.1822    0.0385 H   0  0  0  0  0  0  0  0  0  0  0  0
  1  2  1  0  0  0  0
  1 25  1  0  0  0  0
  2  3  1  0  0  0  0
  2 24  2  0  0  0  0
  3  4  2  0  0  0  0
  3 26  1  0  0  0  0
  4  5  1  0  0  0  0
  4 27  1  0  0  0  0
  5  6  2  0  0  0  0
  5 28  1  0  0  0  0
  6  7  1  0  0  0  0
  6 24  1  0  0  0  0
  7  8  1  0  0  0  0
  7 17  2  0  0  0  0
  8  9  2  0  0  0  0
  9 10  1  0  0  0  0
  9 16  1  0  0  0  0
 10 11  1  0  0  0  0
 10 15  2  0  0  0  0
 11 12  2  0  0  0  0
 11 29  1  0  0  0  0
 12 13  1  0  0  0  0
 12 30  1  0  0  0  0
 13 14  2  0  0  0  0
 13 31  1  0  0  0  0
 14 15  1  0  0  0  0
 14 32  1  0  0  0  0
 15 33  1  0  0  0  0
 16 17  1  0  0  0  0
 16 34  1  0  0  0  0
 17 18  1  0  0  0  0
 18 19  1  0  0  0  0
 18 23  2  0  0  0  0
 19 20  2  0  0  0  0
 19 35  1  0  0  0  0
 20 21  1  0  0  0  0
 20 36  1  0  0  0  0
 21 22  2  0  0  0  0
 22 23  1  0  0  0  0
 22 37  1  0  0  0  0
 23 38  1  0  0  0  0
 24 39  1  0  0  0  0
M  END
