
 OpenBabel03132512093D

 24 26  0  0  0  0  0  0  0  0999 V2000
    0.9202    0.0552   -0.0242 C   0  0  0  0  0  0  0  0  0  0  0  0
    0.4302   -1.3120   -0.2509 N   0  0  0  0  0  0  0  0  0  0  0  0
    1.1063   -2.4027    0.0472 C   0  0  0  0  0  0  0  0  0  0  0  0
    2.4842   -2.4198    0.6887 C   0  0  0  0  0  0  0  0  0  0  0  0
    4.0070   -3.1078    0.0643 N   0  0  0  0  0  0  0  0  0  0  0  0
    5.0419   -2.7026    1.3949 O   0  0  0  0  0  0  0  0  0  0  0  0
    4.2042   -2.0665    2.2575 N   0  0  0  0  0  0  0  0  0  0  0  0
    2.8858   -1.9039    1.9135 C   0  0  0  0  0  0  0  0  0  0  0  0
    1.9402   -1.2138    2.8026 N   0  0  0  0  0  0  0  0  0  0  0  0
    0.4171   -3.4827   -0.2906 N   0  0  0  0  0  0  0  0  0  0  0  0
   -0.7423   -3.0991   -0.8229 C   0  0  0  0  0  0  0  0  0  0  0  0
   -1.8649   -3.7674   -1.3549 C   0  0  0  0  0  0  0  0  0  0  0  0
   -2.9046   -3.0448   -1.8253 N   0  0  0  0  0  0  0  0  0  0  0  0
   -2.8935   -1.6859   -1.8054 C   0  0  0  0  0  0  0  0  0  0  0  0
   -1.8479   -0.9918   -1.3033 C   0  0  0  0  0  0  0  0  0  0  0  0
   -0.7401   -1.6762   -0.7995 C   0  0  0  0  0  0  0  0  0  0  0  0
    0.5636    0.4099    0.9202 H   0  0  0  0  0  0  0  0  0  0  0  0
    0.5636    0.6957   -0.8036 H   0  0  0  0  0  0  0  0  0  0  0  0
    1.9902    0.0552   -0.0242 H   0  0  0  0  0  0  0  0  0  0  0  0
    2.2594   -0.8433    3.6977 H   0  0  0  0  0  0  0  0  0  0  0  0
    0.9649   -1.1054    2.5244 H   0  0  0  0  0  0  0  0  0  0  0  0
   -1.8926   -4.8366   -1.3854 H   0  0  0  0  0  0  0  0  0  0  0  0
   -3.7339   -1.1519   -2.1971 H   0  0  0  0  0  0  0  0  0  0  0  0
   -1.8692    0.0779   -1.2920 H   0  0  0  0  0  0  0  0  0  0  0  0
  1  2  1  0  0  0  0
  1 17  1  0  0  0  0
  1 18  1  0  0  0  0
  1 19  1  0  0  0  0
  2  3  1  0  0  0  0
  2 16  1  0  0  0  0
  3  4  1  0  0  0  0
  3 10  2  0  0  0  0
  4  5  2  0  0  0  0
  4  8  1  0  0  0  0
  5  6  1  0  0  0  0
  6  7  1  0  0  0  0
  7  8  2  0  0  0  0
  8  9  1  0  0  0  0
  9 20  1  0  0  0  0
  9 21  1  0  0  0  0
 10 11  1  0  0  0  0
 11 12  1  0  0  0  0
 11 16  2  0  0  0  0
 12 13  2  0  0  0  0
 12 22  1  0  0  0  0
 13 14  1  0  0  0  0
 14 15  2  0  0  0  0
 14 23  1  0  0  0  0
 15 16  1  0  0  0  0
 15 24  1  0  0  0  0
M  END
