REMARK  Name = 
REMARK  2 active torsions:
REMARK  status: ('A' for Active; 'I' for Inactive)
REMARK    1  A    between atoms: C_1  and  N_2
REMARK    2  A    between atoms: C_3  and  C_4
REMARK                            x       y       z     vdW  Elec       q    Type
REMARK                         _______ _______ _______ _____ _____    ______ ____
ROOT
ATOM      1  C   UNL     1       0.920   0.055  -0.024  0.00  0.00    +0.000 C 
ATOM      2  N   UNL     1       0.430  -1.312  -0.251  0.00  0.00    +0.000 N 
ATOM      3  C   UNL     1       1.106  -2.403   0.047  0.00  0.00    +0.000 A 
ATOM      4  N   UNL     1       0.417  -3.483  -0.291  0.00  0.00    +0.000 NA
ATOM      5  C   UNL     1      -0.742  -3.099  -0.823  0.00  0.00    +0.000 A 
ATOM      6  C   UNL     1      -1.865  -3.767  -1.355  0.00  0.00    +0.000 A 
ATOM      7  N   UNL     1      -2.905  -3.045  -1.825  0.00  0.00    +0.000 NA
ATOM      8  C   UNL     1      -2.893  -1.686  -1.805  0.00  0.00    +0.000 A 
ATOM      9  C   UNL     1      -1.848  -0.992  -1.303  0.00  0.00    +0.000 A 
ATOM     10  C   UNL     1      -0.740  -1.676  -0.799  0.00  0.00    +0.000 A 
ENDROOT
BRANCH   3  11
ATOM     11  C   UNL     1       2.484  -2.420   0.689  0.00  0.00    +0.000 A 
ATOM     12  N   UNL     1       4.007  -3.108   0.064  0.00  0.00    +0.000 NA
ATOM     13  O   UNL     1       5.042  -2.703   1.395  0.00  0.00    +0.000 OA
ATOM     14  N   UNL     1       4.204  -2.067   2.257  0.00  0.00    +0.000 NA
ATOM     15  C   UNL     1       2.886  -1.904   1.913  0.00  0.00    +0.000 A 
ATOM     16  N   UNL     1       1.940  -1.214   2.803  0.00  0.00    +0.000 N 
ATOM     17  H   UNL     1       2.259  -0.843   3.698  0.00  0.00    +0.000 HD
ATOM     18  H   UNL     1       0.965  -1.105   2.524  0.00  0.00    +0.000 HD
ENDBRANCH   3  11
TORSDOF 1
