REMARK  Name = 
REMARK  2 active torsions:
REMARK  status: ('A' for Active; 'I' for Inactive)
REMARK    1  A    between atoms: C_1  and  N_2
REMARK    2  A    between atoms: C_3  and  C_4
REMARK                            x       y       z     vdW  Elec       q    Type
REMARK                         _______ _______ _______ _____ _____    ______ ____
ROOT
ATOM      1  C   UNL     1       1.075   0.063  -0.019  0.00  0.00    +0.000 C 
ATOM      2  N   UNL     1       0.585   1.118   0.880  0.00  0.00    +0.000 N 
ATOM      3  C   UNL     1      -0.036   0.999   2.036  0.00  0.00    +0.000 A 
ATOM      4  N   UNL     1      -0.143   2.179   2.629  0.00  0.00    +0.000 NA
ATOM      5  C   UNL     1       0.421   3.100   1.849  0.00  0.00    +0.000 A 
ATOM      6  C   UNL     1       0.616   4.495   1.934  0.00  0.00    +0.000 A 
ATOM      7  N   UNL     1       1.250   5.138   0.929  0.00  0.00    +0.000 NA
ATOM      8  C   UNL     1       1.701   4.474  -0.168  0.00  0.00    +0.000 A 
ATOM      9  C   UNL     1       1.547   3.138  -0.302  0.00  0.00    +0.000 A 
ATOM     10  C   UNL     1       0.901   2.411   0.700  0.00  0.00    +0.000 A 
ENDROOT
BRANCH   3  11
ATOM     11  C   UNL     1      -0.557  -0.309   2.609  0.00  0.00    +0.000 A 
ATOM     12  N   UNL     1      -2.277  -0.718   2.846  0.00  0.00    +0.000 NA
ATOM     13  O   UNL     1      -2.085  -2.359   3.371  0.00  0.00    +0.000 OA
ATOM     14  N   UNL     1      -0.736  -2.537   3.349  0.00  0.00    +0.000 NA
ATOM     15  C   UNL     1       0.070  -1.499   2.955  0.00  0.00    +0.000 A 
ATOM     16  N   UNL     1       1.532  -1.640   2.901  0.00  0.00    +0.000 N 
ATOM     17  H   UNL     1       1.968  -2.525   3.160  0.00  0.00    +0.000 HD
ATOM     18  H   UNL     1       2.110  -0.854   2.604  0.00  0.00    +0.000 HD
ENDBRANCH   3  11
TORSDOF 1
