REMARK  Name = 
REMARK  8 active torsions:
REMARK  status: ('A' for Active; 'I' for Inactive)
REMARK    1  A    between atoms: C_1  and  C_2
REMARK    2  A    between atoms: C_2  and  C_3
REMARK    3  A    between atoms: C_2  and  C_4
REMARK    4  A    between atoms: C_4  and  C_5
REMARK    5  A    between atoms: C_5  and  N_6
REMARK    6  A    between atoms: C_10  and  C_11
REMARK    7  A    between atoms: N_18  and  C_19
REMARK    8  A    between atoms: N_22  and  C_23
REMARK                            x       y       z     vdW  Elec       q    Type
REMARK                         _______ _______ _______ _____ _____    ______ ____
ROOT
ATOM      1  C   UNL     1      -4.644   6.791  -2.199  0.00  0.00    +0.000 A 
ATOM      2  C   UNL     1      -5.320   6.919  -3.350  0.00  0.00    +0.000 A 
ATOM      3  N   UNL     1      -6.067   8.081  -3.388  0.00  0.00    +0.000 NA
ATOM      4  C   UNL     1      -5.805   8.620  -2.238  0.00  0.00    +0.000 A 
ATOM      5  C   UNL     1      -6.294   9.796  -1.808  0.00  0.00    +0.000 A 
ATOM      6  C   UNL     1      -5.802  10.151  -0.508  0.00  0.00    +0.000 A 
ATOM      7  C   UNL     1      -4.953   9.363   0.194  0.00  0.00    +0.000 A 
ATOM      8  N   UNL     1      -4.501   9.824   1.514  0.00  0.00    +0.000 N 
ATOM      9  N   UNL     1      -4.532   8.253  -0.231  0.00  0.00    +0.000 NA
ATOM     10  N   UNL     1      -4.969   7.894  -1.464  0.00  0.00    +0.000 N 
ATOM     11  H   UNL     1      -4.827  10.719   1.881  0.00  0.00    +0.000 HD
ENDROOT
BRANCH   1  16
ATOM     12  N   UNL     1      -0.958   2.672  -0.773  0.00  0.00    +0.000 N 
ATOM     13  C   UNL     1      -1.913   3.741  -1.096  0.00  0.00    +0.000 A 
ATOM     14  C   UNL     1      -3.004   3.962  -0.280  0.00  0.00    +0.000 A 
ATOM     15  C   UNL     1      -3.925   4.957  -0.618  0.00  0.00    +0.000 A 
ATOM     16  C   UNL     1      -3.680   5.697  -1.768  0.00  0.00    +0.000 A 
ATOM     17  C   UNL     1      -2.555   5.427  -2.511  0.00  0.00    +0.000 A 
ATOM     18  N   UNL     1      -1.682   4.462  -2.204  0.00  0.00    +0.000 NA
ATOM     19  H   UNL     1       0.045   2.850  -0.827  0.00  0.00    +0.000 HD
BRANCH  12  20
ATOM     20  C   UNL     1      -1.448   1.345  -0.371  0.00  0.00    +0.000 C 
BRANCH  20  21
ATOM     21  C   UNL     1      -0.941   0.300  -1.351  0.00  0.00    +0.000 C 
BRANCH  21  23
ATOM     22  C   UNL     1       1.086  -0.027   0.044  0.00  0.00    +0.000 C 
ATOM     23  C   UNL     1       0.579   0.300  -1.351  0.00  0.00    +0.000 C 
ATOM     24  C   UNL     1       1.086  -0.746  -2.332  0.00  0.00    +0.000 C 
ENDBRANCH  21  23
ENDBRANCH  20  21
ENDBRANCH  12  20
ENDBRANCH   1  16
BRANCH   8  25
ATOM     25  C   UNL     1      -3.580   8.996   2.306  0.00  0.00    +0.000 C 
ATOM     26  C   UNL     1      -2.227   8.652   1.740  0.00  0.00    +0.000 C 
ATOM     27  C   UNL     1      -2.401   7.752   0.521  0.00  0.00    +0.000 C 
ATOM     28  N   UNL     1      -3.136   6.532   0.866  0.00  0.00    +0.000 NA
ATOM     29  C   UNL     1      -3.292   5.701  -0.332  0.00  0.00    +0.000 C 
ATOM     30  C   UNL     1      -4.455   6.866   1.416  0.00  0.00    +0.000 C 
ATOM     31  C   UNL     1      -4.340   7.741   2.662  0.00  0.00    +0.000 C 
ENDBRANCH   8  25
TORSDOF 5
