
 OpenBabel03132512093D

 51 54  0  0  0  0  0  0  0  0999 V2000
    0.9577    0.0014    0.0906 C   0  0  0  0  0  0  0  0  0  0  0  0
    0.4844   -0.0768   -1.2459 O   0  0  0  0  0  0  0  0  0  0  0  0
    0.9577    1.0415   -1.9819 C   0  0  0  0  0  0  0  0  0  0  0  0
    0.4510    2.3224   -1.3391 C   0  0  0  0  0  0  0  0  0  0  0  0
    1.2769    3.1857   -0.9058 O   0  0  0  0  0  0  0  0  0  0  0  0
   -0.9942    2.5624   -1.2186 N   0  0  0  0  0  0  0  0  0  0  0  0
   -1.9495    1.5638   -1.7198 C   0  0  0  0  0  0  0  0  0  0  0  0
   -1.7568    0.1946   -1.4434 C   0  0  0  0  0  0  0  0  0  0  0  0
   -2.6701   -0.7313   -1.8788 C   0  0  0  0  0  0  0  0  0  0  0  0
   -3.7761   -0.2482   -2.5974 C   0  0  0  0  0  0  0  0  0  0  0  0
   -4.8342   -0.8921   -3.1521 N   0  0  0  0  0  0  0  0  0  0  0  0
   -5.7014   -0.0162   -3.7546 N   0  0  0  0  0  0  0  0  0  0  0  0
   -5.1842    1.1858   -3.5856 C   0  0  0  0  0  0  0  0  0  0  0  0
   -5.8144    2.4707   -4.0977 C   0  0  0  0  0  0  0  0  0  0  0  0
   -7.0608    2.7802   -3.5788 C   0  0  0  0  0  0  0  0  0  0  0  0
   -7.7161    3.8376   -4.2530 C   0  0  0  0  0  0  0  0  0  0  0  0
   -7.1158    4.7053   -5.0472 C   0  0  0  0  0  0  0  0  0  0  0  0
   -5.8589    4.3736   -5.4709 C   0  0  0  0  0  0  0  0  0  0  0  0
   -5.0449    5.3885   -6.7293 S   0  0  0  0  0  0  0  0  0  0  0  0
   -6.0119    5.3869   -8.1998 N   0  0  0  0  0  0  0  0  0  0  0  0
   -4.9021    6.8225   -6.2141 O   0  0  0  0  0  0  0  0  0  0  0  0
   -3.6586    4.8139   -7.0297 O   0  0  0  0  0  0  0  0  0  0  0  0
   -5.2048    3.2808   -4.9552 C   0  0  0  0  0  0  0  0  0  0  0  0
   -3.9608    1.1243   -2.8623 C   0  0  0  0  0  0  0  0  0  0  0  0
   -3.0252    2.0628   -2.4199 C   0  0  0  0  0  0  0  0  0  0  0  0
    2.4777    1.0415   -1.9819 C   0  0  0  0  0  0  0  0  0  0  0  0
    3.1572   -0.1652   -2.0108 C   0  0  0  0  0  0  0  0  0  0  0  0
    4.5362   -0.0538   -1.7144 C   0  0  0  0  0  0  0  0  0  0  0  0
    5.2233    1.0732   -1.7592 C   0  0  0  0  0  0  0  0  0  0  0  0
    4.4938    2.2290   -1.7980 C   0  0  0  0  0  0  0  0  0  0  0  0
    3.1291    2.1983   -1.9542 C   0  0  0  0  0  0  0  0  0  0  0  0
    0.6010   -0.8412    0.6452 H   0  0  0  0  0  0  0  0  0  0  0  0
    0.6010    0.9031    0.5431 H   0  0  0  0  0  0  0  0  0  0  0  0
    2.0277    0.0014    0.0906 H   0  0  0  0  0  0  0  0  0  0  0  0
    0.6010    0.9826   -2.9890 H   0  0  0  0  0  0  0  0  0  0  0  0
   -1.3342    3.4219   -0.7873 H   0  0  0  0  0  0  0  0  0  0  0  0
   -0.8960   -0.1228   -0.8928 H   0  0  0  0  0  0  0  0  0  0  0  0
   -2.5457   -1.7752   -1.6798 H   0  0  0  0  0  0  0  0  0  0  0  0
   -4.9683   -1.9029   -3.1244 H   0  0  0  0  0  0  0  0  0  0  0  0
   -7.4893    2.2662   -2.7439 H   0  0  0  0  0  0  0  0  0  0  0  0
   -8.7713    3.9414   -4.1095 H   0  0  0  0  0  0  0  0  0  0  0  0
   -7.5877    5.6189   -5.3431 H   0  0  0  0  0  0  0  0  0  0  0  0
   -5.5531    5.9588   -8.9090 H   0  0  0  0  0  0  0  0  0  0  0  0
   -6.1070    4.4312   -8.5432 H   0  0  0  0  0  0  0  0  0  0  0  0
   -4.1950    3.0809   -5.2471 H   0  0  0  0  0  0  0  0  0  0  0  0
   -3.1379    3.1090   -2.6140 H   0  0  0  0  0  0  0  0  0  0  0  0
    2.6822   -1.0970   -2.2367 H   0  0  0  0  0  0  0  0  0  0  0  0
    5.0588   -0.9446   -1.4345 H   0  0  0  0  0  0  0  0  0  0  0  0
    6.2932    1.0813   -1.7648 H   0  0  0  0  0  0  0  0  0  0  0  0
    4.9930    3.1709   -1.7055 H   0  0  0  0  0  0  0  0  0  0  0  0
    2.5862    3.1149   -2.0545 H   0  0  0  0  0  0  0  0  0  0  0  0
  1  2  1  0  0  0  0
  1 32  1  0  0  0  0
  1 33  1  0  0  0  0
  1 34  1  0  0  0  0
  2  3  1  0  0  0  0
  3  4  1  0  0  0  0
  3 26  1  0  0  0  0
  3 35  1  0  0  0  0
  4  5  2  0  0  0  0
  4  6  1  0  0  0  0
  6  7  1  0  0  0  0
  6 36  1  0  0  0  0
  7  8  1  0  0  0  0
  7 25  2  0  0  0  0
  8  9  2  0  0  0  0
  8 37  1  0  0  0  0
  9 10  1  0  0  0  0
  9 38  1  0  0  0  0
 10 11  1  0  0  0  0
 10 24  2  0  0  0  0
 11 12  1  0  0  0  0
 11 39  1  0  0  0  0
 12 13  2  0  0  0  0
 13 14  1  0  0  0  0
 13 24  1  0  0  0  0
 14 15  1  0  0  0  0
 14 23  2  0  0  0  0
 15 16  2  0  0  0  0
 15 40  1  0  0  0  0
 16 17  1  0  0  0  0
 16 41  1  0  0  0  0
 17 18  2  0  0  0  0
 17 42  1  0  0  0  0
 18 19  1  0  0  0  0
 18 23  1  0  0  0  0
 19 20  1  0  0  0  0
 19 21  2  0  0  0  0
 19 22  2  0  0  0  0
 20 43  1  0  0  0  0
 20 44  1  0  0  0  0
 23 45  1  0  0  0  0
 24 25  1  0  0  0  0
 25 46  1  0  0  0  0
 26 27  1  0  0  0  0
 26 31  2  0  0  0  0
 27 28  2  0  0  0  0
 27 47  1  0  0  0  0
 28 29  1  0  0  0  0
 28 48  1  0  0  0  0
 29 30  2  0  0  0  0
 29 49  1  0  0  0  0
 30 31  1  0  0  0  0
 30 50  1  0  0  0  0
 31 51  1  0  0  0  0
M  END
