
 OpenBabel03132512093D

 60 63  0  0  0  0  0  0  0  0999 V2000
    0.9335    0.0728    0.0166 C   0  0  0  0  0  0  0  0  0  0  0  0
    0.4268   -0.1148   -1.4041 C   0  0  0  0  0  0  0  0  0  0  0  0
    0.9335   -1.4390   -1.9520 C   0  0  0  0  0  0  0  0  0  0  0  0
   -1.0932   -0.1148   -1.4041 C   0  0  0  0  0  0  0  0  0  0  0  0
   -1.5999    1.2094   -0.8562 C   0  0  0  0  0  0  0  0  0  0  0  0
   -1.1099    2.3086   -1.7003 N   0  0  0  0  0  0  0  0  0  0  0  0
   -2.0651    3.1948   -2.3808 C   0  0  0  0  0  0  0  0  0  0  0  0
   -3.1658    3.7059   -1.7217 C   0  0  0  0  0  0  0  0  0  0  0  0
   -4.0972    4.4695   -2.4297 C   0  0  0  0  0  0  0  0  0  0  0  0
   -3.8540    4.6941   -3.7788 C   0  0  0  0  0  0  0  0  0  0  0  0
   -4.8289    5.5105   -4.6116 C   0  0  0  0  0  0  0  0  0  0  0  0
   -5.4555    5.1912   -5.7534 C   0  0  0  0  0  0  0  0  0  0  0  0
   -6.1811    6.2518   -6.2622 N   0  0  0  0  0  0  0  0  0  0  0  0
   -5.9573    7.1867   -5.3927 C   0  0  0  0  0  0  0  0  0  0  0  0
   -6.4440    8.4388   -5.4630 C   0  0  0  0  0  0  0  0  0  0  0  0
   -5.9993    9.2608   -4.3749 C   0  0  0  0  0  0  0  0  0  0  0  0
   -5.1930    8.7986   -3.3898 C   0  0  0  0  0  0  0  0  0  0  0  0
   -4.7871    9.7268   -2.3246 N   0  0  0  0  0  0  0  0  0  0  0  0
   -3.9126    9.2619   -1.2384 C   0  0  0  0  0  0  0  0  0  0  0  0
   -2.5938    8.7682   -1.7740 C   0  0  0  0  0  0  0  0  0  0  0  0
   -2.8283    7.5438   -2.6522 C   0  0  0  0  0  0  0  0  0  0  0  0
   -3.5072    6.4811   -1.9068 N   0  0  0  0  0  0  0  0  0  0  0  0
   -3.7242    5.3294   -2.7880 C   0  0  0  0  0  0  0  0  0  0  0  0
   -4.7933    6.9595   -1.3867 C   0  0  0  0  0  0  0  0  0  0  0  0
   -4.6147    8.1677   -0.4697 C   0  0  0  0  0  0  0  0  0  0  0  0
   -4.7735    7.6100   -3.3424 N   0  0  0  0  0  0  0  0  0  0  0  0
   -5.1655    6.8094   -4.3646 N   0  0  0  0  0  0  0  0  0  0  0  0
   -2.7189    4.1676   -4.3514 C   0  0  0  0  0  0  0  0  0  0  0  0
   -1.8355    3.4186   -3.6841 N   0  0  0  0  0  0  0  0  0  0  0  0
    0.5768   -0.7273    0.6311 H   0  0  0  0  0  0  0  0  0  0  0  0
    0.5768    1.0049    0.4024 H   0  0  0  0  0  0  0  0  0  0  0  0
    2.0035    0.0728    0.0166 H   0  0  0  0  0  0  0  0  0  0  0  0
    0.7835    0.6853   -2.0185 H   0  0  0  0  0  0  0  0  0  0  0  0
    0.5768   -2.2391   -1.3376 H   0  0  0  0  0  0  0  0  0  0  0  0
    0.5768   -1.5710   -2.9522 H   0  0  0  0  0  0  0  0  0  0  0  0
    2.0035   -1.4390   -1.9520 H   0  0  0  0  0  0  0  0  0  0  0  0
   -1.4499   -0.2468   -2.4042 H   0  0  0  0  0  0  0  0  0  0  0  0
   -1.4499   -0.9149   -0.7897 H   0  0  0  0  0  0  0  0  0  0  0  0
   -2.6699    1.2094   -0.8562 H   0  0  0  0  0  0  0  0  0  0  0  0
   -1.2432    1.3414    0.1440 H   0  0  0  0  0  0  0  0  0  0  0  0
   -0.1070    2.4565   -1.8138 H   0  0  0  0  0  0  0  0  0  0  0  0
   -3.3041    3.5187   -0.6773 H   0  0  0  0  0  0  0  0  0  0  0  0
   -4.9670    4.8672   -1.9498 H   0  0  0  0  0  0  0  0  0  0  0  0
   -5.4002    4.2281   -6.2164 H   0  0  0  0  0  0  0  0  0  0  0  0
   -7.0904    8.7829   -6.2431 H   0  0  0  0  0  0  0  0  0  0  0  0
   -6.3179   10.2816   -4.3401 H   0  0  0  0  0  0  0  0  0  0  0  0
   -5.1123   10.6934   -2.3392 H   0  0  0  0  0  0  0  0  0  0  0  0
   -3.7067   10.0835   -0.5846 H   0  0  0  0  0  0  0  0  0  0  0  0
   -1.9535    8.5047   -0.9582 H   0  0  0  0  0  0  0  0  0  0  0  0
   -2.1329    9.5402   -2.3542 H   0  0  0  0  0  0  0  0  0  0  0  0
   -1.8792    7.1748   -2.9806 H   0  0  0  0  0  0  0  0  0  0  0  0
   -3.4333    7.8247   -3.4889 H   0  0  0  0  0  0  0  0  0  0  0  0
   -4.1973    4.5433   -2.2374 H   0  0  0  0  0  0  0  0  0  0  0  0
   -4.3504    5.6191   -3.6058 H   0  0  0  0  0  0  0  0  0  0  0  0
   -2.7832    4.9855   -3.1637 H   0  0  0  0  0  0  0  0  0  0  0  0
   -5.4003    7.2561   -2.2165 H   0  0  0  0  0  0  0  0  0  0  0  0
   -5.2597    6.1705   -0.8346 H   0  0  0  0  0  0  0  0  0  0  0  0
   -4.0328    7.8927    0.3851 H   0  0  0  0  0  0  0  0  0  0  0  0
   -5.5721    8.5155   -0.1423 H   0  0  0  0  0  0  0  0  0  0  0  0
   -2.5335    4.3685   -5.3859 H   0  0  0  0  0  0  0  0  0  0  0  0
  1  2  1  0  0  0  0
  1 30  1  0  0  0  0
  1 31  1  0  0  0  0
  1 32  1  0  0  0  0
  2  3  1  0  0  0  0
  2  4  1  0  0  0  0
  2 33  1  0  0  0  0
  3 34  1  0  0  0  0
  3 35  1  0  0  0  0
  3 36  1  0  0  0  0
  4  5  1  0  0  0  0
  4 37  1  0  0  0  0
  4 38  1  0  0  0  0
  5  6  1  0  0  0  0
  5 39  1  0  0  0  0
  5 40  1  0  0  0  0
  6  7  1  0  0  0  0
  6 41  1  0  0  0  0
  7  8  1  0  0  0  0
  7 29  2  0  0  0  0
  8  9  2  0  0  0  0
  8 42  1  0  0  0  0
  9 10  1  0  0  0  0
  9 43  1  0  0  0  0
 10 11  1  0  0  0  0
 10 28  2  0  0  0  0
 11 12  2  0  0  0  0
 11 27  1  0  0  0  0
 12 13  1  0  0  0  0
 12 44  1  0  0  0  0
 13 14  2  0  0  0  0
 14 15  1  0  0  0  0
 14 27  1  0  0  0  0
 15 16  2  0  0  0  0
 15 45  1  0  0  0  0
 16 17  1  0  0  0  0
 16 46  1  0  0  0  0
 17 18  1  0  0  0  0
 17 26  2  0  0  0  0
 18 19  1  0  0  0  0
 18 47  1  0  0  0  0
 19 20  1  0  0  0  0
 19 25  1  0  0  0  0
 19 48  1  0  0  0  0
 20 21  1  0  0  0  0
 20 49  1  0  0  0  0
 20 50  1  0  0  0  0
 21 22  1  0  0  0  0
 21 51  1  0  0  0  0
 21 52  1  0  0  0  0
 22 23  1  0  0  0  0
 22 24  1  0  0  0  0
 23 53  1  0  0  0  0
 23 54  1  0  0  0  0
 23 55  1  0  0  0  0
 24 25  1  0  0  0  0
 24 56  1  0  0  0  0
 24 57  1  0  0  0  0
 25 58  1  0  0  0  0
 25 59  1  0  0  0  0
 26 27  1  0  0  0  0
 28 29  1  0  0  0  0
 28 60  1  0  0  0  0
M  END
