REMARK  Name = 
REMARK  8 active torsions:
REMARK  status: ('A' for Active; 'I' for Inactive)
REMARK    1  A    between atoms: C_1  and  O_2
REMARK    2  A    between atoms: O_2  and  C_3
REMARK    3  A    between atoms: C_3  and  C_4
REMARK    4  A    between atoms: C_3  and  C_26
REMARK    5  A    between atoms: N_6  and  C_7
REMARK    6  A    between atoms: C_13  and  C_14
REMARK    7  A    between atoms: C_18  and  S_19
REMARK    8  A    between atoms: S_19  and  N_20
REMARK                            x       y       z     vdW  Elec       q    Type
REMARK                         _______ _______ _______ _____ _____    ______ ____
ROOT
ATOM      1  C   UNL     1      -1.950   1.564  -1.720  0.00  0.00    +0.000 A 
ATOM      2  C   UNL     1      -1.757   0.195  -1.443  0.00  0.00    +0.000 A 
ATOM      3  C   UNL     1      -2.670  -0.731  -1.879  0.00  0.00    +0.000 A 
ATOM      4  C   UNL     1      -3.776  -0.248  -2.597  0.00  0.00    +0.000 A 
ATOM      5  N   UNL     1      -4.834  -0.892  -3.152  0.00  0.00    +0.000 N 
ATOM      6  N   UNL     1      -5.701  -0.016  -3.755  0.00  0.00    +0.000 NA
ATOM      7  C   UNL     1      -5.184   1.186  -3.586  0.00  0.00    +0.000 A 
ATOM      8  C   UNL     1      -3.961   1.124  -2.862  0.00  0.00    +0.000 A 
ATOM      9  C   UNL     1      -3.025   2.063  -2.420  0.00  0.00    +0.000 A 
ATOM     10  H   UNL     1      -4.968  -1.903  -3.124  0.00  0.00    +0.000 HD
ENDROOT
BRANCH   7  11
ATOM     11  C   UNL     1      -5.814   2.471  -4.098  0.00  0.00    +0.000 A 
ATOM     12  C   UNL     1      -7.061   2.780  -3.579  0.00  0.00    +0.000 A 
ATOM     13  C   UNL     1      -7.716   3.838  -4.253  0.00  0.00    +0.000 A 
ATOM     14  C   UNL     1      -7.116   4.705  -5.047  0.00  0.00    +0.000 A 
ATOM     15  C   UNL     1      -5.859   4.374  -5.471  0.00  0.00    +0.000 A 
ATOM     16  C   UNL     1      -5.205   3.281  -4.955  0.00  0.00    +0.000 A 
BRANCH  15  17
ATOM     17  S   UNL     1      -5.045   5.388  -6.729  0.00  0.00    +0.000 S 
ATOM     18  O   UNL     1      -4.902   6.822  -6.214  0.00  0.00    +0.000 OA
ATOM     19  O   UNL     1      -3.659   4.814  -7.030  0.00  0.00    +0.000 OA
BRANCH  17  20
ATOM     20  N   UNL     1      -6.012   5.387  -8.200  0.00  0.00    +0.000 NA
ATOM     21  H   UNL     1      -5.553   5.959  -8.909  0.00  0.00    +0.000 HD
ATOM     22  H   UNL     1      -6.107   4.431  -8.543  0.00  0.00    +0.000 HD
ENDBRANCH  17  20
ENDBRANCH  15  17
ENDBRANCH   7  11
BRANCH   1  25
ATOM     23  C   UNL     1       0.451   2.322  -1.339  0.00  0.00    +0.000 C 
ATOM     24  O   UNL     1       1.277   3.186  -0.906  0.00  0.00    +0.000 OA
ATOM     25  N   UNL     1      -0.994   2.562  -1.219  0.00  0.00    +0.000 N 
ATOM     26  H   UNL     1      -1.334   3.422  -0.787  0.00  0.00    +0.000 HD
BRANCH  23  27
ATOM     27  C   UNL     1       0.958   1.042  -1.982  0.00  0.00    +0.000 C 
BRANCH  27  28
ATOM     28  C   UNL     1       2.478   1.042  -1.982  0.00  0.00    +0.000 A 
ATOM     29  C   UNL     1       3.157  -0.165  -2.011  0.00  0.00    +0.000 A 
ATOM     30  C   UNL     1       4.536  -0.054  -1.714  0.00  0.00    +0.000 A 
ATOM     31  C   UNL     1       5.223   1.073  -1.759  0.00  0.00    +0.000 A 
ATOM     32  C   UNL     1       4.494   2.229  -1.798  0.00  0.00    +0.000 A 
ATOM     33  C   UNL     1       3.129   2.198  -1.954  0.00  0.00    +0.000 A 
ENDBRANCH  27  28
BRANCH  27  35
ATOM     34  C   UNL     1       0.958   0.001   0.091  0.00  0.00    +0.000 C 
ATOM     35  O   UNL     1       0.484  -0.077  -1.246  0.00  0.00    +0.000 OA
ENDBRANCH  27  35
ENDBRANCH  23  27
ENDBRANCH   1  25
TORSDOF 7
