REMARK  Name = 
REMARK  8 active torsions:
REMARK  status: ('A' for Active; 'I' for Inactive)
REMARK    1  A    between atoms: C_1  and  C_2
REMARK    2  A    between atoms: C_2  and  C_3
REMARK    3  A    between atoms: C_2  and  C_4
REMARK    4  A    between atoms: C_4  and  C_5
REMARK    5  A    between atoms: C_5  and  N_6
REMARK    6  A    between atoms: C_10  and  C_11
REMARK    7  A    between atoms: N_18  and  C_19
REMARK    8  A    between atoms: N_22  and  C_23
REMARK                            x       y       z     vdW  Elec       q    Type
REMARK                         _______ _______ _______ _____ _____    ______ ____
ROOT
ATOM      1  C   UNL     1      -4.829   5.511  -4.612  0.00  0.00    +0.000 A 
ATOM      2  C   UNL     1      -5.455   5.191  -5.753  0.00  0.00    +0.000 A 
ATOM      3  N   UNL     1      -6.181   6.252  -6.262  0.00  0.00    +0.000 NA
ATOM      4  C   UNL     1      -5.957   7.187  -5.393  0.00  0.00    +0.000 A 
ATOM      5  C   UNL     1      -6.444   8.439  -5.463  0.00  0.00    +0.000 A 
ATOM      6  C   UNL     1      -5.999   9.261  -4.375  0.00  0.00    +0.000 A 
ATOM      7  C   UNL     1      -5.193   8.799  -3.390  0.00  0.00    +0.000 A 
ATOM      8  N   UNL     1      -4.787   9.727  -2.325  0.00  0.00    +0.000 N 
ATOM      9  N   UNL     1      -4.774   7.610  -3.342  0.00  0.00    +0.000 NA
ATOM     10  N   UNL     1      -5.165   6.809  -4.365  0.00  0.00    +0.000 N 
ATOM     11  H   UNL     1      -5.112  10.693  -2.339  0.00  0.00    +0.000 HD
ENDROOT
BRANCH   1  16
ATOM     12  N   UNL     1      -1.110   2.309  -1.700  0.00  0.00    +0.000 N 
ATOM     13  C   UNL     1      -2.065   3.195  -2.381  0.00  0.00    +0.000 A 
ATOM     14  C   UNL     1      -3.166   3.706  -1.722  0.00  0.00    +0.000 A 
ATOM     15  C   UNL     1      -4.097   4.470  -2.430  0.00  0.00    +0.000 A 
ATOM     16  C   UNL     1      -3.854   4.694  -3.779  0.00  0.00    +0.000 A 
ATOM     17  C   UNL     1      -2.719   4.168  -4.351  0.00  0.00    +0.000 A 
ATOM     18  N   UNL     1      -1.835   3.419  -3.684  0.00  0.00    +0.000 NA
ATOM     19  H   UNL     1      -0.107   2.457  -1.814  0.00  0.00    +0.000 HD
BRANCH  12  20
ATOM     20  C   UNL     1      -1.600   1.209  -0.856  0.00  0.00    +0.000 C 
BRANCH  20  21
ATOM     21  C   UNL     1      -1.093  -0.115  -1.404  0.00  0.00    +0.000 C 
BRANCH  21  23
ATOM     22  C   UNL     1       0.933   0.073   0.017  0.00  0.00    +0.000 C 
ATOM     23  C   UNL     1       0.427  -0.115  -1.404  0.00  0.00    +0.000 C 
ATOM     24  C   UNL     1       0.933  -1.439  -1.952  0.00  0.00    +0.000 C 
ENDBRANCH  21  23
ENDBRANCH  20  21
ENDBRANCH  12  20
ENDBRANCH   1  16
BRANCH   8  25
ATOM     25  C   UNL     1      -3.913   9.262  -1.238  0.00  0.00    +0.000 C 
ATOM     26  C   UNL     1      -2.594   8.768  -1.774  0.00  0.00    +0.000 C 
ATOM     27  C   UNL     1      -2.828   7.544  -2.652  0.00  0.00    +0.000 C 
ATOM     28  N   UNL     1      -3.507   6.481  -1.907  0.00  0.00    +0.000 NA
ATOM     29  C   UNL     1      -3.724   5.329  -2.788  0.00  0.00    +0.000 C 
ATOM     30  C   UNL     1      -4.793   6.960  -1.387  0.00  0.00    +0.000 C 
ATOM     31  C   UNL     1      -4.615   8.168  -0.470  0.00  0.00    +0.000 C 
ENDBRANCH   8  25
TORSDOF 5
