
 OpenBabel03132512093D

 57 60  0  0  0  0  0  0  0  0999 V2000
    1.0986    0.0159    0.0047 C   0  0  0  0  0  0  0  0  0  0  0  0
    0.6253   -0.3524    1.2919 O   0  0  0  0  0  0  0  0  0  0  0  0
    0.9683   -1.6168    1.8395 C   0  0  0  0  0  0  0  0  0  0  0  0
    2.2483   -2.1576    1.8066 C   0  0  0  0  0  0  0  0  0  0  0  0
    2.5077   -3.3416    2.4547 C   0  0  0  0  0  0  0  0  0  0  0  0
    1.5111   -4.0021    3.1716 C   0  0  0  0  0  0  0  0  0  0  0  0
    0.2183   -3.4627    3.1939 C   0  0  0  0  0  0  0  0  0  0  0  0
   -0.8181   -4.1272    3.9014 O   0  0  0  0  0  0  0  0  0  0  0  0
   -2.1278   -3.5789    3.9228 C   0  0  0  0  0  0  0  0  0  0  0  0
   -0.0465   -2.2786    2.5235 C   0  0  0  0  0  0  0  0  0  0  0  0
   -1.3597   -1.7385    2.5350 O   0  0  0  0  0  0  0  0  0  0  0  0
   -1.6347   -0.5257    1.8494 C   0  0  0  0  0  0  0  0  0  0  0  0
    1.8120   -5.2232    3.9407 C   0  0  0  0  0  0  0  0  0  0  0  0
    2.7594   -5.2143    4.9610 C   0  0  0  0  0  0  0  0  0  0  0  0
    3.0703   -6.3648    5.6480 C   0  0  0  0  0  0  0  0  0  0  0  0
    2.4167   -7.5522    5.3415 C   0  0  0  0  0  0  0  0  0  0  0  0
    1.4491   -7.5744    4.3436 C   0  0  0  0  0  0  0  0  0  0  0  0
    1.1436   -6.4177    3.6418 C   0  0  0  0  0  0  0  0  0  0  0  0
    0.1555   -6.4440    2.6223 O   0  0  0  0  0  0  0  0  0  0  0  0
   -0.1561   -5.2590    1.9047 C   0  0  0  0  0  0  0  0  0  0  0  0
    0.7713   -8.7852    4.0418 O   0  0  0  0  0  0  0  0  0  0  0  0
   -0.2174   -8.8104    3.0229 C   0  0  0  0  0  0  0  0  0  0  0  0
    2.7369   -8.7421    6.0472 O   0  0  0  0  0  0  0  0  0  0  0  0
    3.4361   -3.9035    5.3056 C   0  0  0  0  0  0  0  0  0  0  0  0
    4.8437   -3.8786    4.7123 C   0  0  0  0  0  0  0  0  0  0  0  0
    5.3457   -5.3076    4.5846 C   0  0  0  0  0  0  0  0  0  0  0  0
    4.8341   -3.2357    3.3269 C   0  0  0  0  0  0  0  0  0  0  0  0
    4.3615   -1.7974    3.4617 C   0  0  0  0  0  0  0  0  0  0  0  0
    3.8827   -3.9768    2.3896 C   0  0  0  0  0  0  0  0  0  0  0  0
    0.7419    0.9946   -0.2399 H   0  0  0  0  0  0  0  0  0  0  0  0
    0.7419   -0.6852   -0.7206 H   0  0  0  0  0  0  0  0  0  0  0  0
    2.1686    0.0159    0.0047 H   0  0  0  0  0  0  0  0  0  0  0  0
    3.0299   -1.6534    1.2778 H   0  0  0  0  0  0  0  0  0  0  0  0
   -2.0991   -2.6037    4.3621 H   0  0  0  0  0  0  0  0  0  0  0  0
   -2.5015   -3.5086    2.9226 H   0  0  0  0  0  0  0  0  0  0  0  0
   -2.7698   -4.2112    4.4998 H   0  0  0  0  0  0  0  0  0  0  0  0
   -1.0293    0.2581    2.2543 H   0  0  0  0  0  0  0  0  0  0  0  0
   -1.4137   -0.6460    0.8093 H   0  0  0  0  0  0  0  0  0  0  0  0
   -2.6682   -0.2755    1.9678 H   0  0  0  0  0  0  0  0  0  0  0  0
    3.8141   -6.3455    6.4169 H   0  0  0  0  0  0  0  0  0  0  0  0
   -0.5069   -4.5116    2.5854 H   0  0  0  0  0  0  0  0  0  0  0  0
    0.7209   -4.9033    1.4055 H   0  0  0  0  0  0  0  0  0  0  0  0
   -0.9172   -5.4690    1.1826 H   0  0  0  0  0  0  0  0  0  0  0  0
    0.2228   -8.5215    2.0914 H   0  0  0  0  0  0  0  0  0  0  0  0
   -0.6162   -9.7996    2.9373 H   0  0  0  0  0  0  0  0  0  0  0  0
    3.4984   -3.8061    6.3693 H   0  0  0  0  0  0  0  0  0  0  0  0
    2.8661   -3.0924    4.9030 H   0  0  0  0  0  0  0  0  0  0  0  0
    5.4864   -3.3156    5.3564 H   0  0  0  0  0  0  0  0  0  0  0  0
    6.3341   -5.3032    4.1748 H   0  0  0  0  0  0  0  0  0  0  0  0
    5.3622   -5.7675    5.5506 H   0  0  0  0  0  0  0  0  0  0  0  0
    4.6942   -5.8581    3.9386 H   0  0  0  0  0  0  0  0  0  0  0  0
    5.8229   -3.2671    2.9191 H   0  0  0  0  0  0  0  0  0  0  0  0
    5.0232   -1.2639    4.1115 H   0  0  0  0  0  0  0  0  0  0  0  0
    4.3558   -1.3321    2.4982 H   0  0  0  0  0  0  0  0  0  0  0  0
    3.3726   -1.7837    3.8702 H   0  0  0  0  0  0  0  0  0  0  0  0
    4.2539   -3.9188    1.3877 H   0  0  0  0  0  0  0  0  0  0  0  0
    3.8158   -5.0022    2.6878 H   0  0  0  0  0  0  0  0  0  0  0  0
  1  2  1  0  0  0  0
  1 30  1  0  0  0  0
  1 31  1  0  0  0  0
  1 32  1  0  0  0  0
  2  3  1  0  0  0  0
  3  4  1  0  0  0  0
  3 10  2  0  0  0  0
  4  5  2  0  0  0  0
  4 33  1  0  0  0  0
  5  6  1  0  0  0  0
  5 29  1  0  0  0  0
  6  7  2  0  0  0  0
  6 13  1  0  0  0  0
  7  8  1  0  0  0  0
  7 10  1  0  0  0  0
  8  9  1  0  0  0  0
  9 34  1  0  0  0  0
  9 35  1  0  0  0  0
  9 36  1  0  0  0  0
 10 11  1  0  0  0  0
 11 12  1  0  0  0  0
 12 37  1  0  0  0  0
 12 38  1  0  0  0  0
 12 39  1  0  0  0  0
 13 14  1  0  0  0  0
 13 18  2  0  0  0  0
 14 15  2  0  0  0  0
 14 24  1  0  0  0  0
 15 16  1  0  0  0  0
 15 40  1  0  0  0  0
 16 17  2  0  0  0  0
 16 23  1  0  0  0  0
 17 18  1  0  0  0  0
 17 21  1  0  0  0  0
 18 19  1  0  0  0  0
 19 20  1  0  0  0  0
 20 41  1  0  0  0  0
 20 42  1  0  0  0  0
 20 43  1  0  0  0  0
 21 22  1  0  0  0  0
 22 23  1  0  0  0  0
 22 44  1  0  0  0  0
 22 45  1  0  0  0  0
 24 25  1  0  0  0  0
 24 46  1  0  0  0  0
 24 47  1  0  0  0  0
 25 26  1  0  0  0  0
 25 27  1  0  0  0  0
 25 48  1  0  0  0  0
 26 49  1  0  0  0  0
 26 50  1  0  0  0  0
 26 51  1  0  0  0  0
 27 28  1  0  0  0  0
 27 29  1  0  0  0  0
 27 52  1  0  0  0  0
 28 53  1  0  0  0  0
 28 54  1  0  0  0  0
 28 55  1  0  0  0  0
 29 56  1  0  0  0  0
 29 57  1  0  0  0  0
M  END
