REMARK  Name = 
REMARK  10 active torsions:
REMARK  status: ('A' for Active; 'I' for Inactive)
REMARK    1  A    between atoms: C_1  and  O_2
REMARK    2  A    between atoms: O_2  and  C_3
REMARK    3  A    between atoms: C_7  and  O_8
REMARK    4  A    between atoms: O_8  and  C_9
REMARK    5  A    between atoms: C_10  and  O_11
REMARK    6  A    between atoms: O_11  and  C_12
REMARK    7  A    between atoms: C_18  and  O_19
REMARK    8  A    between atoms: O_19  and  C_20
REMARK    9  A    between atoms: C_25  and  C_26
REMARK   10  A    between atoms: C_27  and  C_28
REMARK                            x       y       z     vdW  Elec       q    Type
REMARK                         _______ _______ _______ _____ _____    ______ ____
ROOT
ATOM      1  C   UNL     1       0.968  -1.617   1.839  0.00  0.00    +0.000 A 
ATOM      2  C   UNL     1       2.248  -2.158   1.807  0.00  0.00    +0.000 A 
ATOM      3  C   UNL     1       2.508  -3.342   2.455  0.00  0.00    +0.000 A 
ATOM      4  C   UNL     1       1.511  -4.002   3.172  0.00  0.00    +0.000 A 
ATOM      5  C   UNL     1       0.218  -3.463   3.194  0.00  0.00    +0.000 A 
ATOM      6  C   UNL     1      -0.046  -2.279   2.523  0.00  0.00    +0.000 A 
ATOM      7  C   UNL     1       1.812  -5.223   3.941  0.00  0.00    +0.000 A 
ATOM      8  C   UNL     1       2.759  -5.214   4.961  0.00  0.00    +0.000 A 
ATOM      9  C   UNL     1       3.070  -6.365   5.648  0.00  0.00    +0.000 A 
ATOM     10  C   UNL     1       2.417  -7.552   5.341  0.00  0.00    +0.000 A 
ATOM     11  C   UNL     1       1.449  -7.574   4.344  0.00  0.00    +0.000 A 
ATOM     12  C   UNL     1       1.144  -6.418   3.642  0.00  0.00    +0.000 A 
ATOM     13  O   UNL     1       0.771  -8.785   4.042  0.00  0.00    +0.000 OA
ATOM     14  C   UNL     1      -0.217  -8.810   3.023  0.00  0.00    +0.000 C 
ATOM     15  O   UNL     1       2.737  -8.742   6.047  0.00  0.00    +0.000 OA
ATOM     16  C   UNL     1       3.436  -3.904   5.306  0.00  0.00    +0.000 C 
ATOM     17  C   UNL     1       4.844  -3.879   4.712  0.00  0.00    +0.000 C 
ATOM     18  C   UNL     1       5.346  -5.308   4.585  0.00  0.00    +0.000 C 
ATOM     19  C   UNL     1       4.834  -3.236   3.327  0.00  0.00    +0.000 C 
ATOM     20  C   UNL     1       4.362  -1.797   3.462  0.00  0.00    +0.000 C 
ATOM     21  C   UNL     1       3.883  -3.977   2.390  0.00  0.00    +0.000 C 
ENDROOT
BRANCH   1  23
ATOM     22  C   UNL     1       1.099   0.016   0.005  0.00  0.00    +0.000 C 
ATOM     23  O   UNL     1       0.625  -0.352   1.292  0.00  0.00    +0.000 OA
ENDBRANCH   1  23
BRANCH   5  24
ATOM     24  O   UNL     1      -0.818  -4.127   3.901  0.00  0.00    +0.000 OA
ATOM     25  C   UNL     1      -2.128  -3.579   3.923  0.00  0.00    +0.000 C 
ENDBRANCH   5  24
BRANCH   6  26
ATOM     26  O   UNL     1      -1.360  -1.738   2.535  0.00  0.00    +0.000 OA
ATOM     27  C   UNL     1      -1.635  -0.526   1.849  0.00  0.00    +0.000 C 
ENDBRANCH   6  26
BRANCH  12  28
ATOM     28  O   UNL     1       0.155  -6.444   2.622  0.00  0.00    +0.000 OA
ATOM     29  C   UNL     1      -0.156  -5.259   1.905  0.00  0.00    +0.000 C 
ENDBRANCH  12  28
TORSDOF 4
