REMARK  Name = 
REMARK  3 active torsions:
REMARK  status: ('A' for Active; 'I' for Inactive)
REMARK    1  A    between atoms: C_1  and  O_2
REMARK    2  A    between atoms: O_2  and  C_3
REMARK    3  A    between atoms: C_13  and  O_14
REMARK                            x       y       z     vdW  Elec       q    Type
REMARK                         _______ _______ _______ _____ _____    ______ ____
ROOT
ATOM      1  C   UNL     1       0.817   0.075  -2.407  0.00  0.00    +0.000 A 
ATOM      2  C   UNL     1      -0.138   0.449  -3.309  0.00  0.00    +0.000 A 
ATOM      3  C   UNL     1       0.192   1.197  -4.442  0.00  0.00    +0.000 A 
ATOM      4  C   UNL     1      -0.743   1.618  -5.446  0.00  0.00    +0.000 A 
ATOM      5  C   UNL     1      -0.338   2.351  -6.490  0.00  0.00    +0.000 A 
ATOM      6  C   UNL     1       1.034   2.733  -6.643  0.00  0.00    +0.000 A 
ATOM      7  O   UNL     1       1.507   3.406  -7.535  0.00  0.00    +0.000 OA
ATOM      8  O   UNL     1       1.931   2.308  -5.696  0.00  0.00    +0.000 OA
ATOM      9  C   UNL     1       1.518   1.572  -4.610  0.00  0.00    +0.000 A 
ATOM     10  C   UNL     1       2.495   1.229  -3.688  0.00  0.00    +0.000 A 
ATOM     11  C   UNL     1       2.142   0.467  -2.581  0.00  0.00    +0.000 A 
ENDROOT
BRANCH   1  13
ATOM     12  C   UNL     1       0.948  -0.073   0.045  0.00  0.00    +0.000 C 
ATOM     13  O   UNL     1       0.474  -0.580  -1.194  0.00  0.00    +0.000 OA
ENDBRANCH   1  13
BRANCH  11  14
ATOM     14  O   UNL     1       3.134   0.120  -1.711  0.00  0.00    +0.000 OA
ATOM     15  H   UNL     1       2.921  -0.428  -0.902  0.00  0.00    +0.000 HD
ENDBRANCH  11  14
TORSDOF 2
