
 OpenBabel03132514253D

 22 23  0  0  0  0  0  0  0  0999 V2000
    1.0038   -0.0844   -0.0535 C   0  0  0  0  0  0  0  0  0  0  0  0
    0.5305    0.1061   -1.3787 O   0  0  0  0  0  0  0  0  0  0  0  0
    0.8735    1.2847   -2.0926 C   0  0  0  0  0  0  0  0  0  0  0  0
   -0.0566    2.0831   -2.6969 C   0  0  0  0  0  0  0  0  0  0  0  0
    0.3075    3.2937   -3.2912 C   0  0  0  0  0  0  0  0  0  0  0  0
   -0.5990    4.1833   -3.9581 C   0  0  0  0  0  0  0  0  0  0  0  0
   -0.1618    5.3346   -4.4825 C   0  0  0  0  0  0  0  0  0  0  0  0
    1.2166    5.7136   -4.3993 C   0  0  0  0  0  0  0  0  0  0  0  0
    1.7177    6.7356   -4.8216 O   0  0  0  0  0  0  0  0  0  0  0  0
    2.0874    4.8502   -3.7838 O   0  0  0  0  0  0  0  0  0  0  0  0
    1.6415    3.6752   -3.2254 C   0  0  0  0  0  0  0  0  0  0  0  0
    2.5922    2.8933   -2.5877 C   0  0  0  0  0  0  0  0  0  0  0  0
    2.2055    1.6839   -2.0240 C   0  0  0  0  0  0  0  0  0  0  0  0
    3.1731    0.9250   -1.4331 O   0  0  0  0  0  0  0  0  0  0  0  0
    0.6471   -1.0209    0.3214 H   0  0  0  0  0  0  0  0  0  0  0  0
    0.6472    0.7086    0.5701 H   0  0  0  0  0  0  0  0  0  0  0  0
    2.0738   -0.0844   -0.0535 H   0  0  0  0  0  0  0  0  0  0  0  0
   -1.0812    1.7756   -2.7151 H   0  0  0  0  0  0  0  0  0  0  0  0
   -1.6341    3.9242   -4.0370 H   0  0  0  0  0  0  0  0  0  0  0  0
   -0.8558    5.9844   -4.9734 H   0  0  0  0  0  0  0  0  0  0  0  0
    3.6104    3.2171   -2.5303 H   0  0  0  0  0  0  0  0  0  0  0  0
    2.9354    0.0478   -1.0160 H   0  0  0  0  0  0  0  0  0  0  0  0
  1  2  1  0  0  0  0
  1 15  1  0  0  0  0
  1 16  1  0  0  0  0
  1 17  1  0  0  0  0
  2  3  1  0  0  0  0
  3  4  1  0  0  0  0
  3 13  2  0  0  0  0
  4  5  2  0  0  0  0
  4 18  1  0  0  0  0
  5  6  1  0  0  0  0
  5 11  1  0  0  0  0
  6  7  2  0  0  0  0
  6 19  1  0  0  0  0
  7  8  1  0  0  0  0
  7 20  1  0  0  0  0
  8  9  2  0  0  0  0
  8 10  1  0  0  0  0
 10 11  1  0  0  0  0
 11 12  2  0  0  0  0
 12 13  1  0  0  0  0
 12 21  1  0  0  0  0
 13 14  1  0  0  0  0
 14 22  1  0  0  0  0
M  END
