REMARK  Name = 
REMARK  22 active torsions:
REMARK  status: ('A' for Active; 'I' for Inactive)
REMARK    1  A    between atoms: C_1  and  C_2
REMARK    2  A    between atoms: C_17  and  O_18
REMARK    3  A    between atoms: O_18  and  C_19
REMARK    4  A    between atoms: C_21  and  C_22
REMARK    5  A    between atoms: C_22  and  O_23
REMARK    6  A    between atoms: C_24  and  O_25
REMARK    7  A    between atoms: C_26  and  O_27
REMARK    8  A    between atoms: O_27  and  C_28
REMARK    9  A    between atoms: C_30  and  C_31
REMARK   10  A    between atoms: C_31  and  O_32
REMARK   11  A    between atoms: C_33  and  O_34
REMARK   12  A    between atoms: C_35  and  O_36
REMARK   13  A    between atoms: C_37  and  O_38
REMARK   14  A    between atoms: C_39  and  O_40
REMARK   15  A    between atoms: O_40  and  C_41
REMARK   16  A    between atoms: C_43  and  C_44
REMARK   17  A    between atoms: C_45  and  O_46
REMARK   18  A    between atoms: C_47  and  O_48
REMARK   19  A    between atoms: C_49  and  O_50
REMARK   20  A    between atoms: C_53  and  C_54
REMARK   21  A    between atoms: C_58  and  C_59
REMARK   22  A    between atoms: C_61  and  C_62
REMARK                            x       y       z     vdW  Elec       q    Type
REMARK                         _______ _______ _______ _____ _____    ______ ____
ROOT
ATOM      1  C   UNL     1      -3.752  -0.069   7.921  0.00  0.00    +0.000 C 
ATOM      2  O   UNL     1      -2.750  -1.213   8.092  0.00  0.00    +0.000 OA
ATOM      3  C   UNL     1      -2.323  -1.667   6.805  0.00  0.00    +0.000 C 
ATOM      4  C   UNL     1      -1.661  -0.669   6.026  0.00  0.00    +0.000 C 
ATOM      5  C   UNL     1      -2.618   0.498   5.772  0.00  0.00    +0.000 C 
ATOM      6  C   UNL     1      -3.095   1.058   7.116  0.00  0.00    +0.000 C 
ENDROOT
BRANCH   4   7
ATOM      7  O   UNL     1      -1.257  -1.229   4.785  0.00  0.00    +0.000 OA
ATOM      8  H   UNL     1      -2.061  -1.559   4.290  0.00  0.00    +0.000 HD
ENDBRANCH   4   7
BRANCH   5   9
ATOM      9  O   UNL     1      -3.734   0.045   5.020  0.00  0.00    +0.000 OA
BRANCH   9  10
ATOM     10  C   UNL     1      -4.411  -0.973   5.742  0.00  0.00    +0.000 C 
ATOM     11  O   UNL     1      -3.172  -1.845   5.959  0.00  0.00    +0.000 OA
ATOM     12  C   UNL     1      -2.176  -1.093   6.655  0.00  0.00    +0.000 C 
ATOM     13  C   UNL     1      -2.582  -0.646   7.951  0.00  0.00    +0.000 C 
ATOM     14  C   UNL     1      -3.797   0.274   7.814  0.00  0.00    +0.000 C 
ATOM     15  C   UNL     1      -4.923  -0.481   7.100  0.00  0.00    +0.000 C 
BRANCH  15  16
ATOM     16  O   UNL     1      -6.034   0.382   6.910  0.00  0.00    +0.000 OA
ATOM     17  H   UNL     1      -5.755   1.166   6.355  0.00  0.00    +0.000 HD
ENDBRANCH  15  16
BRANCH  14  18
ATOM     18  O   UNL     1      -3.443   1.425   7.063  0.00  0.00    +0.000 OA
ATOM     19  H   UNL     1      -3.132   1.147   6.154  0.00  0.00    +0.000 HD
ENDBRANCH  14  18
BRANCH  13  20
ATOM     20  O   UNL     1      -1.516   0.064   8.563  0.00  0.00    +0.000 OA
ATOM     21  H   UNL     1      -1.274   0.854   7.999  0.00  0.00    +0.000 HD
ENDBRANCH  13  20
BRANCH  12  22
ATOM     22  C   UNL     1      -1.908   0.153   5.827  0.00  0.00    +0.000 C 
BRANCH  22  23
ATOM     23  O   UNL     1      -0.902   0.933   6.455  0.00  0.00    +0.000 OA
ATOM     24  H   UNL     1      -1.209   1.200   7.369  0.00  0.00    +0.000 HD
ENDBRANCH  22  23
ENDBRANCH  12  22
ENDBRANCH   9  10
ENDBRANCH   5   9
BRANCH   6  25
ATOM     25  O   UNL     1      -4.035   2.099   6.895  0.00  0.00    +0.000 OA
BRANCH  25  26
ATOM     26  C   UNL     1      -5.147   1.589   6.174  0.00  0.00    +0.000 C 
ATOM     27  O   UNL     1      -4.776   1.086   4.777  0.00  0.00    +0.000 OA
ATOM     28  C   UNL     1      -3.938  -0.067   4.893  0.00  0.00    +0.000 C 
ATOM     29  C   UNL     1      -2.740   0.345   5.732  0.00  0.00    +0.000 C 
ATOM     30  C   UNL     1      -4.553  -1.168   5.564  0.00  0.00    +0.000 C 
ATOM     31  C   UNL     1      -4.915  -0.756   6.993  0.00  0.00    +0.000 C 
ATOM     32  C   UNL     1      -5.842   0.462   6.945  0.00  0.00    +0.000 C 
BRANCH  32  33
ATOM     33  O   UNL     1      -6.134   0.894   8.266  0.00  0.00    +0.000 OA
ATOM     34  H   UNL     1      -5.284   1.141   8.731  0.00  0.00    +0.000 HD
ENDBRANCH  32  33
BRANCH  31  35
ATOM     35  O   UNL     1      -3.734  -0.430   7.710  0.00  0.00    +0.000 OA
ATOM     36  H   UNL     1      -3.265   0.327   7.254  0.00  0.00    +0.000 HD
ENDBRANCH  31  35
BRANCH  30  37
ATOM     37  O   UNL     1      -3.650  -2.264   5.601  0.00  0.00    +0.000 OA
ATOM     38  H   UNL     1      -2.820  -1.995   6.091  0.00  0.00    +0.000 HD
ENDBRANCH  30  37
ENDBRANCH  25  26
ENDBRANCH   6  25
BRANCH   3  39
ATOM     39  C   UNL     1      -3.576  -2.061   6.041  0.00  0.00    +0.000 C 
BRANCH  39  40
ATOM     40  O   UNL     1      -3.214  -2.549   4.757  0.00  0.00    +0.000 OA
ATOM     41  H   UNL     1      -2.727  -1.835   4.254  0.00  0.00    +0.000 HD
ENDBRANCH  39  40
ENDBRANCH   3  39
BRANCH   1  42
ATOM     42  O   UNL     1      -4.817  -0.598   7.146  0.00  0.00    +0.000 OA
BRANCH  42  59
ATOM     43  C   UNL     1       0.997   0.072   0.070  0.00  0.00    +0.000 C 
ATOM     44  C   UNL     1       0.491   1.003  -1.020  0.00  0.00    +0.000 C 
ATOM     45  C   UNL     1      -1.029   1.003  -1.020  0.00  0.00    +0.000 C 
ATOM     46  C   UNL     1      -1.536   1.481   0.331  0.00  0.00    +0.000 C 
ATOM     47  C   UNL     1      -1.029   2.890   0.593  0.00  0.00    +0.000 C 
ATOM     48  N   UNL     1      -1.543   4.098  -0.068  0.00  0.00    +0.000 NA
ATOM     49  C   UNL     1       0.997   0.525  -2.371  0.00  0.00    +0.000 C 
ATOM     50  O   UNL     1       0.156   1.938   0.415  0.00  0.00    +0.000 OA
ATOM     51  C   UNL     1      -0.133   0.683   1.145  0.00  0.00    +0.000 C 
ATOM     52  C   UNL     1       0.932   0.080   1.747  0.00  0.00    +0.000 C 
ATOM     53  C   UNL     1       0.697  -1.165   2.564  0.00  0.00    +0.000 C 
ATOM     54  C   UNL     1       0.506  -0.755   3.981  0.00  0.00    +0.000 C 
ATOM     55  C   UNL     1      -0.803  -0.589   4.348  0.00  0.00    +0.000 C 
ATOM     56  C   UNL     1      -1.089   0.109   5.608  0.00  0.00    +0.000 C 
ATOM     57  C   UNL     1      -2.350   0.283   6.000  0.00  0.00    +0.000 C 
ATOM     58  C   UNL     1      -3.490  -0.283   5.170  0.00  0.00    +0.000 C 
ATOM     59  C   UNL     1      -4.289  -1.266   6.010  0.00  0.00    +0.000 C 
ATOM     60  C   UNL     1      -5.429  -1.833   5.180  0.00  0.00    +0.000 C 
ATOM     61  C   UNL     1      -1.363   1.214   8.066  0.00  0.00    +0.000 C 
ATOM     62  C   UNL     1      -2.644   1.044   7.266  0.00  0.00    +0.000 C 
ATOM     63  C   UNL     1      -3.659   0.275   8.097  0.00  0.00    +0.000 C 
ATOM     64  C   UNL     1      -3.212   2.421   6.911  0.00  0.00    +0.000 C 
ATOM     65  C   UNL     1      -2.304   3.096   5.999  0.00  0.00    +0.000 C 
ATOM     66  C   UNL     1      -2.846   3.694   4.927  0.00  0.00    +0.000 C 
ATOM     67  C   UNL     1      -1.960   4.407   3.937  0.00  0.00    +0.000 C 
ATOM     68  C   UNL     1      -1.744   5.864   4.314  0.00  0.00    +0.000 C 
ATOM     69  C   UNL     1      -2.101   3.791   2.630  0.00  0.00    +0.000 C 
ATOM     70  C   UNL     1      -0.969   3.517   1.962  0.00  0.00    +0.000 C 
ATOM     71  C   UNL     1      -0.318   2.437   2.810  0.00  0.00    +0.000 C 
ATOM     72  H   UNL     1      -1.040   4.915   0.279  0.00  0.00    +0.000 HD
ENDBRANCH  42  59
ENDBRANCH   1  42
TORSDOF 17
