
 OpenBabel03132514253D

135143  0  0  0  0  0  0  0  0999 V2000
    0.9517   -0.0603    0.0635 C   0  0  0  0  0  0  0  0  0  0  0  0
    0.4451   -0.4134    1.4524 C   0  0  0  0  0  0  0  0  0  0  0  0
   -1.0749   -0.4134    1.4524 C   0  0  0  0  0  0  0  0  0  0  0  0
   -1.5816   -1.4396    0.4522 C   0  0  0  0  0  0  0  0  0  0  0  0
   -1.0749   -2.8190    0.8409 C   0  0  0  0  0  0  0  0  0  0  0  0
   -0.9527   -3.5499   -0.4287 N   0  0  0  0  0  0  0  0  0  0  0  0
    0.9517    0.6129    2.4527 C   0  0  0  0  0  0  0  0  0  0  0  0
   -1.6131   -4.1516    1.3682 O   0  0  0  0  0  0  0  0  0  0  0  0
   -2.6831   -3.8721    2.3517 C   0  0  0  0  0  0  0  0  0  0  0  0
   -2.7538   -4.7187    3.4187 C   0  0  0  0  0  0  0  0  0  0  0  0
   -3.7773   -4.4515    4.4932 C   0  0  0  0  0  0  0  0  0  0  0  0
   -3.1253   -3.6418    5.5565 C   0  0  0  0  0  0  0  0  0  0  0  0
   -3.3029   -2.2902    5.4244 C   0  0  0  0  0  0  0  0  0  0  0  0
   -2.4543   -1.3949    6.2223 C   0  0  0  0  0  0  0  0  0  0  0  0
   -2.6027   -0.0756    6.1235 C   0  0  0  0  0  0  0  0  0  0  0  0
   -3.6834    0.5037    5.2253 C   0  0  0  0  0  0  0  0  0  0  0  0
   -4.6403    1.3404    6.0588 C   0  0  0  0  0  0  0  0  0  0  0  0
   -3.9254    2.3976    6.6815 O   0  0  0  0  0  0  0  0  0  0  0  0
   -2.9158    1.8564    7.5206 C   0  0  0  0  0  0  0  0  0  0  0  0
   -2.7215    0.3655    7.2346 O   0  0  0  0  0  0  0  0  0  0  0  0
   -2.3985    0.1839    5.8542 C   0  0  0  0  0  0  0  0  0  0  0  0
   -3.5245    0.8174    5.0534 C   0  0  0  0  0  0  0  0  0  0  0  0
   -3.2743    0.6445    3.6664 O   0  0  0  0  0  0  0  0  0  0  0  0
   -1.1903    0.8295    5.4484 C   0  0  0  0  0  0  0  0  0  0  0  0
   -0.9505    0.5650    4.0740 O   0  0  0  0  0  0  0  0  0  0  0  0
   -1.3226    2.3392    5.6622 C   0  0  0  0  0  0  0  0  0  0  0  0
   -2.3680    2.8474    4.8466 O   0  0  0  0  0  0  0  0  0  0  0  0
   -3.5899    2.2121    5.1927 C   0  0  0  0  0  0  0  0  0  0  0  0
   -3.1331    0.7563    5.0732 O   0  0  0  0  0  0  0  0  0  0  0  0
   -1.9455    0.5653    5.8451 C   0  0  0  0  0  0  0  0  0  0  0  0
   -0.9246    1.5691    5.3347 C   0  0  0  0  0  0  0  0  0  0  0  0
    0.2932    1.4096    6.0475 O   0  0  0  0  0  0  0  0  0  0  0  0
   -2.1107    0.8190    7.2414 C   0  0  0  0  0  0  0  0  0  0  0  0
   -0.8848    0.5753    7.9153 O   0  0  0  0  0  0  0  0  0  0  0  0
   -2.5261    2.2774    7.4487 C   0  0  0  0  0  0  0  0  0  0  0  0
   -1.4979    3.1380    6.9813 O   0  0  0  0  0  0  0  0  0  0  0  0
   -3.8176    2.5474    6.6704 C   0  0  0  0  0  0  0  0  0  0  0  0
   -4.1795    3.9142    6.8015 O   0  0  0  0  0  0  0  0  0  0  0  0
   -1.6396    2.6121    7.1359 C   0  0  0  0  0  0  0  0  0  0  0  0
   -1.8289    4.0052    7.3355 O   0  0  0  0  0  0  0  0  0  0  0  0
   -2.9067    4.4568    6.5288 C   0  0  0  0  0  0  0  0  0  0  0  0
   -2.5626    4.2251    5.0557 O   0  0  0  0  0  0  0  0  0  0  0  0
   -2.4915    2.8210    4.7988 C   0  0  0  0  0  0  0  0  0  0  0  0
   -1.4639    2.2504    5.7626 C   0  0  0  0  0  0  0  0  0  0  0  0
   -3.7142    2.1217    5.0384 C   0  0  0  0  0  0  0  0  0  0  0  0
   -3.5420    0.7467    4.7287 O   0  0  0  0  0  0  0  0  0  0  0  0
   -4.1049    2.2684    6.5109 C   0  0  0  0  0  0  0  0  0  0  0  0
   -3.1099    1.6732    7.3308 O   0  0  0  0  0  0  0  0  0  0  0  0
   -4.2309    3.7566    6.8515 C   0  0  0  0  0  0  0  0  0  0  0  0
   -4.5298    3.9089    8.2313 O   0  0  0  0  0  0  0  0  0  0  0  0
   -5.7210    1.9197    5.1606 C   0  0  0  0  0  0  0  0  0  0  0  0
   -0.9435    0.0408    7.9518 C   0  0  0  0  0  0  0  0  0  0  0  0
   -1.6978    0.8423    6.9034 C   0  0  0  0  0  0  0  0  0  0  0  0
   -2.5293    1.9139    7.5894 C   0  0  0  0  0  0  0  0  0  0  0  0
   -0.6993    1.5019    5.9481 C   0  0  0  0  0  0  0  0  0  0  0  0
   -0.0076    0.4746    5.1889 C   0  0  0  0  0  0  0  0  0  0  0  0
    0.1143    0.6681    3.8661 C   0  0  0  0  0  0  0  0  0  0  0  0
    0.8155   -0.3616    3.0172 C   0  0  0  0  0  0  0  0  0  0  0  0
    2.3105   -0.1020    2.9280 C   0  0  0  0  0  0  0  0  0  0  0  0
   -0.1057   -0.8746    2.0189 C   0  0  0  0  0  0  0  0  0  0  0  0
   -0.1545   -2.2079    1.8654 C   0  0  0  0  0  0  0  0  0  0  0  0
   -0.7368   -2.6879    3.1848 C   0  0  0  0  0  0  0  0  0  0  0  0
    0.5951    0.9107   -0.2101 H   0  0  0  0  0  0  0  0  0  0  0  0
    0.5951   -0.7827   -0.6406 H   0  0  0  0  0  0  0  0  0  0  0  0
    2.0217   -0.0603    0.0635 H   0  0  0  0  0  0  0  0  0  0  0  0
    0.8017   -1.3843    1.7260 H   0  0  0  0  0  0  0  0  0  0  0  0
   -1.4316   -0.6619    2.4301 H   0  0  0  0  0  0  0  0  0  0  0  0
   -1.4316    0.5576    1.1788 H   0  0  0  0  0  0  0  0  0  0  0  0
   -2.6516   -1.4396    0.4522 H   0  0  0  0  0  0  0  0  0  0  0  0
   -1.2249   -1.1911   -0.5255 H   0  0  0  0  0  0  0  0  0  0  0  0
   -0.6140   -4.4945   -0.2459 H   0  0  0  0  0  0  0  0  0  0  0  0
    0.5951    0.3644    3.4304 H   0  0  0  0  0  0  0  0  0  0  0  0
    2.0217    0.6129    2.4527 H   0  0  0  0  0  0  0  0  0  0  0  0
   -3.7519   -3.8284    2.3243 H   0  0  0  0  0  0  0  0  0  0  0  0
   -3.0659   -5.6483    2.9904 H   0  0  0  0  0  0  0  0  0  0  0  0
   -1.7935   -4.7105    3.8905 H   0  0  0  0  0  0  0  0  0  0  0  0
   -4.7092   -4.9641    4.6099 H   0  0  0  0  0  0  0  0  0  0  0  0
   -3.0265   -4.5743    6.0717 H   0  0  0  0  0  0  0  0  0  0  0  0
   -3.0245   -2.0851    4.4118 H   0  0  0  0  0  0  0  0  0  0  0  0
   -4.3191   -2.0775    5.6832 H   0  0  0  0  0  0  0  0  0  0  0  0
   -1.7175   -1.8029    6.8823 H   0  0  0  0  0  0  0  0  0  0  0  0
   -3.2319    1.1192    4.4754 H   0  0  0  0  0  0  0  0  0  0  0  0
   -4.2221   -0.2929    4.7561 H   0  0  0  0  0  0  0  0  0  0  0  0
   -5.0918    0.7250    6.8086 H   0  0  0  0  0  0  0  0  0  0  0  0
   -3.1661    1.9568    8.5560 H   0  0  0  0  0  0  0  0  0  0  0  0
   -2.2982   -0.8649    5.6677 H   0  0  0  0  0  0  0  0  0  0  0  0
   -4.4518    0.3489    5.3096 H   0  0  0  0  0  0  0  0  0  0  0  0
   -3.5785    1.8620    5.2786 H   0  0  0  0  0  0  0  0  0  0  0  0
   -2.4077    1.0823    3.4269 H   0  0  0  0  0  0  0  0  0  0  0  0
   -0.3737    0.4569    6.0308 H   0  0  0  0  0  0  0  0  0  0  0  0
   -1.7135    0.9131    3.5294 H   0  0  0  0  0  0  0  0  0  0  0  0
   -0.4038    2.8201    5.3986 H   0  0  0  0  0  0  0  0  0  0  0  0
   -4.4682    2.4599    4.6341 H   0  0  0  0  0  0  0  0  0  0  0  0
   -1.6249   -0.4483    5.7233 H   0  0  0  0  0  0  0  0  0  0  0  0
   -0.7518    1.4032    4.2919 H   0  0  0  0  0  0  0  0  0  0  0  0
   -1.2963    2.5617    5.4813 H   0  0  0  0  0  0  0  0  0  0  0  0
    0.1317    1.5646    7.0221 H   0  0  0  0  0  0  0  0  0  0  0  0
   -2.8679    0.1730    7.6343 H   0  0  0  0  0  0  0  0  0  0  0  0
   -0.1770    1.1789    7.5484 H   0  0  0  0  0  0  0  0  0  0  0  0
   -2.6913    2.4581    8.4903 H   0  0  0  0  0  0  0  0  0  0  0  0
   -1.3409    2.9718    6.0078 H   0  0  0  0  0  0  0  0  0  0  0  0
   -4.6052    1.9364    7.0594 H   0  0  0  0  0  0  0  0  0  0  0  0
   -3.4461    4.4894    6.4391 H   0  0  0  0  0  0  0  0  0  0  0  0
   -0.8267    2.2769    7.7456 H   0  0  0  0  0  0  0  0  0  0  0  0
   -3.0413    5.4980    6.7356 H   0  0  0  0  0  0  0  0  0  0  0  0
   -2.2191    2.6802    3.7737 H   0  0  0  0  0  0  0  0  0  0  0  0
   -1.3605    1.1990    5.5925 H   0  0  0  0  0  0  0  0  0  0  0  0
   -0.5213    2.7316    5.6050 H   0  0  0  0  0  0  0  0  0  0  0  0
   -1.7865    2.4188    6.7688 H   0  0  0  0  0  0  0  0  0  0  0  0
   -4.4865    2.5319    4.4218 H   0  0  0  0  0  0  0  0  0  0  0  0
   -2.8203    0.3630    5.3048 H   0  0  0  0  0  0  0  0  0  0  0  0
   -5.0418    1.7811    6.6830 H   0  0  0  0  0  0  0  0  0  0  0  0
   -2.2326    2.1264    7.1724 H   0  0  0  0  0  0  0  0  0  0  0  0
   -5.0174    4.1920    6.2713 H   0  0  0  0  0  0  0  0  0  0  0  0
   -3.7972    3.5034    8.7779 H   0  0  0  0  0  0  0  0  0  0  0  0
   -6.3946    2.5087    5.7473 H   0  0  0  0  0  0  0  0  0  0  0  0
   -5.2695    2.5352    4.4107 H   0  0  0  0  0  0  0  0  0  0  0  0
   -0.2994    0.6928    8.5040 H   0  0  0  0  0  0  0  0  0  0  0  0
   -1.6417   -0.4199    8.6190 H   0  0  0  0  0  0  0  0  0  0  0  0
   -3.2269    1.4516    8.2561 H   0  0  0  0  0  0  0  0  0  0  0  0
   -1.8854    2.5654    8.1424 H   0  0  0  0  0  0  0  0  0  0  0  0
   -3.0609    2.4790    6.8525 H   0  0  0  0  0  0  0  0  0  0  0  0
   -0.3968    2.5281    5.9318 H   0  0  0  0  0  0  0  0  0  0  0  0
    0.9949    0.4826    5.5629 H   0  0  0  0  0  0  0  0  0  0  0  0
   -0.5375   -0.4438    5.3326 H   0  0  0  0  0  0  0  0  0  0  0  0
   -0.8963    0.6294    3.5167 H   0  0  0  0  0  0  0  0  0  0  0  0
    0.6436    1.5889    3.7357 H   0  0  0  0  0  0  0  0  0  0  0  0
    2.8184   -1.0163    2.7020 H   0  0  0  0  0  0  0  0  0  0  0  0
    2.5029    0.6131    2.1557 H   0  0  0  0  0  0  0  0  0  0  0  0
    2.6627    0.2798    3.8635 H   0  0  0  0  0  0  0  0  0  0  0  0
   -0.0700    0.0928    1.5633 H   0  0  0  0  0  0  0  0  0  0  0  0
    0.8366   -2.5260    1.6177 H   0  0  0  0  0  0  0  0  0  0  0  0
   -0.7735   -3.7572    3.1905 H   0  0  0  0  0  0  0  0  0  0  0  0
   -0.1211   -2.3478    3.9911 H   0  0  0  0  0  0  0  0  0  0  0  0
   -1.7258   -2.2965    3.3016 H   0  0  0  0  0  0  0  0  0  0  0  0
  1  2  1  0  0  0  0
  1 63  1  0  0  0  0
  1 64  1  0  0  0  0
  1 65  1  0  0  0  0
  2  3  1  0  0  0  0
  2  7  1  0  0  0  0
  2 66  1  0  0  0  0
  3  4  1  0  0  0  0
  3 67  1  0  0  0  0
  3 68  1  0  0  0  0
  4  5  1  0  0  0  0
  4 69  1  0  0  0  0
  4 70  1  0  0  0  0
  5  6  1  0  0  0  0
  5  8  1  0  0  0  0
  5 61  1  0  0  0  0
  6  7  1  0  0  0  0
  6 71  1  0  0  0  0
  7 72  1  0  0  0  0
  7 73  1  0  0  0  0
  8  9  1  0  0  0  0
  9 10  1  0  0  0  0
  9 60  1  0  0  0  0
  9 74  1  0  0  0  0
 10 11  1  0  0  0  0
 10 75  1  0  0  0  0
 10 76  1  0  0  0  0
 11 12  1  0  0  0  0
 11 58  1  0  0  0  0
 11 77  1  0  0  0  0
 12 13  1  0  0  0  0
 12 55  1  0  0  0  0
 12 78  1  0  0  0  0
 13 14  1  0  0  0  0
 13 79  1  0  0  0  0
 13 80  1  0  0  0  0
 14 15  2  0  0  0  0
 14 81  1  0  0  0  0
 15 16  1  0  0  0  0
 15 53  1  0  0  0  0
 16 17  1  0  0  0  0
 16 82  1  0  0  0  0
 16 83  1  0  0  0  0
 17 18  1  0  0  0  0
 17 51  1  0  0  0  0
 17 84  1  0  0  0  0
 18 19  1  0  0  0  0
 19 20  1  0  0  0  0
 19 39  1  0  0  0  0
 19 85  1  0  0  0  0
 20 21  1  0  0  0  0
 21 22  1  0  0  0  0
 21 24  1  0  0  0  0
 21 86  1  0  0  0  0
 22 23  1  0  0  0  0
 22 87  1  0  0  0  0
 22 88  1  0  0  0  0
 23 89  1  0  0  0  0
 24 25  1  0  0  0  0
 24 26  1  0  0  0  0
 24 90  1  0  0  0  0
 25 91  1  0  0  0  0
 26 27  1  0  0  0  0
 26 39  1  0  0  0  0
 26 92  1  0  0  0  0
 27 28  1  0  0  0  0
 28 29  1  0  0  0  0
 28 37  1  0  0  0  0
 28 93  1  0  0  0  0
 29 30  1  0  0  0  0
 30 31  1  0  0  0  0
 30 33  1  0  0  0  0
 30 94  1  0  0  0  0
 31 32  1  0  0  0  0
 31 95  1  0  0  0  0
 31 96  1  0  0  0  0
 32 97  1  0  0  0  0
 33 34  1  0  0  0  0
 33 35  1  0  0  0  0
 33 98  1  0  0  0  0
 34 99  1  0  0  0  0
 35 36  1  0  0  0  0
 35 37  1  0  0  0  0
 35100  1  0  0  0  0
 36101  1  0  0  0  0
 37 38  1  0  0  0  0
 37102  1  0  0  0  0
 38103  1  0  0  0  0
 39 40  1  0  0  0  0
 39104  1  0  0  0  0
 40 41  1  0  0  0  0
 41 42  1  0  0  0  0
 41 49  1  0  0  0  0
 41105  1  0  0  0  0
 42 43  1  0  0  0  0
 43 44  1  0  0  0  0
 43 45  1  0  0  0  0
 43106  1  0  0  0  0
 44107  1  0  0  0  0
 44108  1  0  0  0  0
 44109  1  0  0  0  0
 45 46  1  0  0  0  0
 45 47  1  0  0  0  0
 45110  1  0  0  0  0
 46111  1  0  0  0  0
 47 48  1  0  0  0  0
 47 49  1  0  0  0  0
 47112  1  0  0  0  0
 48113  1  0  0  0  0
 49 50  1  0  0  0  0
 49114  1  0  0  0  0
 50115  1  0  0  0  0
 51 52  1  0  0  0  0
 51116  1  0  0  0  0
 51117  1  0  0  0  0
 52 53  1  0  0  0  0
 52118  1  0  0  0  0
 52119  1  0  0  0  0
 53 54  1  0  0  0  0
 53 55  1  0  0  0  0
 54120  1  0  0  0  0
 54121  1  0  0  0  0
 54122  1  0  0  0  0
 55 56  1  0  0  0  0
 55123  1  0  0  0  0
 56 57  1  0  0  0  0
 56124  1  0  0  0  0
 56125  1  0  0  0  0
 57 58  1  0  0  0  0
 57126  1  0  0  0  0
 57127  1  0  0  0  0
 58 59  1  0  0  0  0
 58 60  1  0  0  0  0
 59128  1  0  0  0  0
 59129  1  0  0  0  0
 59130  1  0  0  0  0
 60 61  1  0  0  0  0
 60131  1  0  0  0  0
 61 62  1  0  0  0  0
 61132  1  0  0  0  0
 62133  1  0  0  0  0
 62134  1  0  0  0  0
 62135  1  0  0  0  0
M  END
