REMARK  Name = 
REMARK  22 active torsions:
REMARK  status: ('A' for Active; 'I' for Inactive)
REMARK    1  A    between atoms: C_1  and  C_2
REMARK    2  A    between atoms: C_17  and  O_18
REMARK    3  A    between atoms: O_18  and  C_19
REMARK    4  A    between atoms: C_21  and  C_22
REMARK    5  A    between atoms: C_22  and  O_23
REMARK    6  A    between atoms: C_24  and  O_25
REMARK    7  A    between atoms: C_26  and  O_27
REMARK    8  A    between atoms: O_27  and  C_28
REMARK    9  A    between atoms: C_30  and  C_31
REMARK   10  A    between atoms: C_31  and  O_32
REMARK   11  A    between atoms: C_33  and  O_34
REMARK   12  A    between atoms: C_35  and  O_36
REMARK   13  A    between atoms: C_37  and  O_38
REMARK   14  A    between atoms: C_39  and  O_40
REMARK   15  A    between atoms: O_40  and  C_41
REMARK   16  A    between atoms: C_43  and  C_44
REMARK   17  A    between atoms: C_45  and  O_46
REMARK   18  A    between atoms: C_47  and  O_48
REMARK   19  A    between atoms: C_49  and  O_50
REMARK   20  A    between atoms: C_53  and  C_54
REMARK   21  A    between atoms: C_58  and  C_59
REMARK   22  A    between atoms: C_61  and  C_62
REMARK                            x       y       z     vdW  Elec       q    Type
REMARK                         _______ _______ _______ _____ _____    ______ ____
ROOT
ATOM      1  C   UNL     1      -2.916   1.856   7.521  0.00  0.00    +0.000 C 
ATOM      2  O   UNL     1      -2.721   0.365   7.235  0.00  0.00    +0.000 OA
ATOM      3  C   UNL     1      -2.398   0.184   5.854  0.00  0.00    +0.000 C 
ATOM      4  C   UNL     1      -1.190   0.830   5.448  0.00  0.00    +0.000 C 
ATOM      5  C   UNL     1      -1.323   2.339   5.662  0.00  0.00    +0.000 C 
ATOM      6  C   UNL     1      -1.640   2.612   7.136  0.00  0.00    +0.000 C 
ENDROOT
BRANCH   4   7
ATOM      7  O   UNL     1      -0.951   0.565   4.074  0.00  0.00    +0.000 OA
ATOM      8  H   UNL     1      -1.714   0.913   3.529  0.00  0.00    +0.000 HD
ENDBRANCH   4   7
BRANCH   5   9
ATOM      9  O   UNL     1      -2.368   2.847   4.847  0.00  0.00    +0.000 OA
BRANCH   9  10
ATOM     10  C   UNL     1      -3.590   2.212   5.193  0.00  0.00    +0.000 C 
ATOM     11  O   UNL     1      -3.133   0.756   5.073  0.00  0.00    +0.000 OA
ATOM     12  C   UNL     1      -1.946   0.565   5.845  0.00  0.00    +0.000 C 
ATOM     13  C   UNL     1      -2.111   0.819   7.241  0.00  0.00    +0.000 C 
ATOM     14  C   UNL     1      -2.526   2.277   7.449  0.00  0.00    +0.000 C 
ATOM     15  C   UNL     1      -3.818   2.547   6.670  0.00  0.00    +0.000 C 
BRANCH  15  16
ATOM     16  O   UNL     1      -4.179   3.914   6.801  0.00  0.00    +0.000 OA
ATOM     17  H   UNL     1      -3.446   4.489   6.439  0.00  0.00    +0.000 HD
ENDBRANCH  15  16
BRANCH  14  18
ATOM     18  O   UNL     1      -1.498   3.138   6.981  0.00  0.00    +0.000 OA
ATOM     19  H   UNL     1      -1.341   2.972   6.008  0.00  0.00    +0.000 HD
ENDBRANCH  14  18
BRANCH  13  20
ATOM     20  O   UNL     1      -0.885   0.575   7.915  0.00  0.00    +0.000 OA
ATOM     21  H   UNL     1      -0.177   1.179   7.548  0.00  0.00    +0.000 HD
ENDBRANCH  13  20
BRANCH  12  22
ATOM     22  C   UNL     1      -0.925   1.569   5.335  0.00  0.00    +0.000 C 
BRANCH  22  23
ATOM     23  O   UNL     1       0.293   1.410   6.048  0.00  0.00    +0.000 OA
ATOM     24  H   UNL     1       0.132   1.565   7.022  0.00  0.00    +0.000 HD
ENDBRANCH  22  23
ENDBRANCH  12  22
ENDBRANCH   9  10
ENDBRANCH   5   9
BRANCH   6  25
ATOM     25  O   UNL     1      -1.829   4.005   7.335  0.00  0.00    +0.000 OA
BRANCH  25  26
ATOM     26  C   UNL     1      -2.907   4.457   6.529  0.00  0.00    +0.000 C 
ATOM     27  O   UNL     1      -2.563   4.225   5.056  0.00  0.00    +0.000 OA
ATOM     28  C   UNL     1      -2.491   2.821   4.799  0.00  0.00    +0.000 C 
ATOM     29  C   UNL     1      -1.464   2.250   5.763  0.00  0.00    +0.000 C 
ATOM     30  C   UNL     1      -3.714   2.122   5.038  0.00  0.00    +0.000 C 
ATOM     31  C   UNL     1      -4.105   2.268   6.511  0.00  0.00    +0.000 C 
ATOM     32  C   UNL     1      -4.231   3.757   6.851  0.00  0.00    +0.000 C 
BRANCH  32  33
ATOM     33  O   UNL     1      -4.530   3.909   8.231  0.00  0.00    +0.000 OA
ATOM     34  H   UNL     1      -3.797   3.503   8.778  0.00  0.00    +0.000 HD
ENDBRANCH  32  33
BRANCH  31  35
ATOM     35  O   UNL     1      -3.110   1.673   7.331  0.00  0.00    +0.000 OA
ATOM     36  H   UNL     1      -2.233   2.126   7.172  0.00  0.00    +0.000 HD
ENDBRANCH  31  35
BRANCH  30  37
ATOM     37  O   UNL     1      -3.542   0.747   4.729  0.00  0.00    +0.000 OA
ATOM     38  H   UNL     1      -2.820   0.363   5.305  0.00  0.00    +0.000 HD
ENDBRANCH  30  37
ENDBRANCH  25  26
ENDBRANCH   6  25
BRANCH   3  39
ATOM     39  C   UNL     1      -3.525   0.817   5.053  0.00  0.00    +0.000 C 
BRANCH  39  40
ATOM     40  O   UNL     1      -3.274   0.644   3.666  0.00  0.00    +0.000 OA
ATOM     41  H   UNL     1      -2.408   1.082   3.427  0.00  0.00    +0.000 HD
ENDBRANCH  39  40
ENDBRANCH   3  39
BRANCH   1  42
ATOM     42  O   UNL     1      -3.925   2.398   6.681  0.00  0.00    +0.000 OA
BRANCH  42  59
ATOM     43  C   UNL     1       0.952  -0.060   0.064  0.00  0.00    +0.000 C 
ATOM     44  C   UNL     1       0.445  -0.413   1.452  0.00  0.00    +0.000 C 
ATOM     45  C   UNL     1      -1.075  -0.413   1.452  0.00  0.00    +0.000 C 
ATOM     46  C   UNL     1      -1.582  -1.440   0.452  0.00  0.00    +0.000 C 
ATOM     47  C   UNL     1      -1.075  -2.819   0.841  0.00  0.00    +0.000 C 
ATOM     48  N   UNL     1      -0.953  -3.550  -0.429  0.00  0.00    +0.000 NA
ATOM     49  C   UNL     1       0.952   0.613   2.453  0.00  0.00    +0.000 C 
ATOM     50  O   UNL     1      -1.613  -4.152   1.368  0.00  0.00    +0.000 OA
ATOM     51  C   UNL     1      -2.683  -3.872   2.352  0.00  0.00    +0.000 C 
ATOM     52  C   UNL     1      -2.754  -4.719   3.419  0.00  0.00    +0.000 C 
ATOM     53  C   UNL     1      -3.777  -4.452   4.493  0.00  0.00    +0.000 C 
ATOM     54  C   UNL     1      -3.125  -3.642   5.556  0.00  0.00    +0.000 C 
ATOM     55  C   UNL     1      -3.303  -2.290   5.424  0.00  0.00    +0.000 C 
ATOM     56  C   UNL     1      -2.454  -1.395   6.222  0.00  0.00    +0.000 C 
ATOM     57  C   UNL     1      -2.603  -0.076   6.123  0.00  0.00    +0.000 C 
ATOM     58  C   UNL     1      -3.683   0.504   5.225  0.00  0.00    +0.000 C 
ATOM     59  C   UNL     1      -4.640   1.340   6.059  0.00  0.00    +0.000 C 
ATOM     60  C   UNL     1      -5.721   1.920   5.161  0.00  0.00    +0.000 C 
ATOM     61  C   UNL     1      -0.944   0.041   7.952  0.00  0.00    +0.000 C 
ATOM     62  C   UNL     1      -1.698   0.842   6.903  0.00  0.00    +0.000 C 
ATOM     63  C   UNL     1      -2.529   1.914   7.589  0.00  0.00    +0.000 C 
ATOM     64  C   UNL     1      -0.699   1.502   5.948  0.00  0.00    +0.000 C 
ATOM     65  C   UNL     1      -0.008   0.475   5.189  0.00  0.00    +0.000 C 
ATOM     66  C   UNL     1       0.114   0.668   3.866  0.00  0.00    +0.000 C 
ATOM     67  C   UNL     1       0.816  -0.362   3.017  0.00  0.00    +0.000 C 
ATOM     68  C   UNL     1       2.311  -0.102   2.928  0.00  0.00    +0.000 C 
ATOM     69  C   UNL     1      -0.106  -0.875   2.019  0.00  0.00    +0.000 C 
ATOM     70  C   UNL     1      -0.154  -2.208   1.865  0.00  0.00    +0.000 C 
ATOM     71  C   UNL     1      -0.737  -2.688   3.185  0.00  0.00    +0.000 C 
ATOM     72  H   UNL     1      -0.614  -4.495  -0.246  0.00  0.00    +0.000 HD
ENDBRANCH  42  59
ENDBRANCH   1  42
TORSDOF 17
