
 OpenBabel03132512093D

 57 62  0  0  0  0  0  0  0  0999 V2000
    0.9406    0.0398   -0.0699 O   0  0  0  0  0  0  0  0  0  0  0  0
    2.2115    0.0398   -0.0699 C   0  0  0  0  0  0  0  0  0  0  0  0
    2.9465   -1.0564   -0.7172 N   0  0  0  0  0  0  0  0  0  0  0  0
    4.4165   -1.0564   -0.7172 C   0  0  0  0  0  0  0  0  0  0  0  0
    5.0959   -1.3573   -1.8862 C   0  0  0  0  0  0  0  0  0  0  0  0
    6.4750   -1.6121   -1.6983 C   0  0  0  0  0  0  0  0  0  0  0  0
    7.1620   -1.2621   -0.6261 C   0  0  0  0  0  0  0  0  0  0  0  0
    6.4326   -0.9099    0.4754 C   0  0  0  0  0  0  0  0  0  0  0  0
    5.0678   -0.7679    0.4034 C   0  0  0  0  0  0  0  0  0  0  0  0
    4.2967   -0.2762    1.6174 C   0  0  0  0  0  0  0  0  0  0  0  0
    4.5789    0.8948    2.2608 C   0  0  0  0  0  0  0  0  0  0  0  0
    3.7408    0.9347    3.3446 N   0  0  0  0  0  0  0  0  0  0  0  0
    3.4606    1.7817    4.4178 C   0  0  0  0  0  0  0  0  0  0  0  0
    4.1388    3.1193    4.6654 C   0  0  0  0  0  0  0  0  0  0  0  0
    3.1299    4.1884    4.6618 N   0  0  0  0  0  0  0  0  0  0  0  0
    3.0611    4.1083    3.1976 C   0  0  0  0  0  0  0  0  0  0  0  0
    1.8219    3.3632    2.7402 C   0  0  0  0  0  0  0  0  0  0  0  0
    0.6143    4.0364    3.2329 N   0  0  0  0  0  0  0  0  0  0  0  0
    0.6832    4.1165    4.6972 C   0  0  0  0  0  0  0  0  0  0  0  0
    1.9223    4.8616    5.1545 C   0  0  0  0  0  0  0  0  0  0  0  0
    2.5144    1.2536    5.1960 C   0  0  0  0  0  0  0  0  0  0  0  0
    1.9159   -0.2872    4.6400 S   0  0  0  0  0  0  0  0  0  0  0  0
    3.0046   -0.2104    3.2976 C   0  0  0  0  0  0  0  0  0  0  0  0
    3.2926   -0.9741    2.2748 N   0  0  0  0  0  0  0  0  0  0  0  0
    2.9715    1.1732    0.5995 C   0  0  0  0  0  0  0  0  0  0  0  0
    4.4117    1.1732    0.5995 C   0  0  0  0  0  0  0  0  0  0  0  0
    5.1081    0.1346   -0.0139 N   0  0  0  0  0  0  0  0  0  0  0  0
    4.3731   -0.9616   -0.6612 C   0  0  0  0  0  0  0  0  0  0  0  0
    4.6591   -2.2990   -0.4419 C   0  0  0  0  0  0  0  0  0  0  0  0
    3.9799   -3.1812   -1.3150 C   0  0  0  0  0  0  0  0  0  0  0  0
    2.9143   -2.8588   -2.0255 C   0  0  0  0  0  0  0  0  0  0  0  0
    2.6464   -1.5237   -2.1482 C   0  0  0  0  0  0  0  0  0  0  0  0
    3.3533   -0.5919   -1.4272 C   0  0  0  0  0  0  0  0  0  0  0  0
    2.2750    2.2119    1.2128 N   0  0  0  0  0  0  0  0  0  0  0  0
    2.4365   -1.8170   -1.1664 H   0  0  0  0  0  0  0  0  0  0  0  0
    4.6210   -1.3938   -2.8443 H   0  0  0  0  0  0  0  0  0  0  0  0
    6.9975   -2.1241   -2.4791 H   0  0  0  0  0  0  0  0  0  0  0  0
    8.2320   -1.2545   -0.6198 H   0  0  0  0  0  0  0  0  0  0  0  0
    6.9317   -0.7424    1.4069 H   0  0  0  0  0  0  0  0  0  0  0  0
    5.3039    1.6290    1.9776 H   0  0  0  0  0  0  0  0  0  0  0  0
    4.6330    3.0984    5.6142 H   0  0  0  0  0  0  0  0  0  0  0  0
    4.8565    3.3036    3.8935 H   0  0  0  0  0  0  0  0  0  0  0  0
    3.0174    5.1040    2.8082 H   0  0  0  0  0  0  0  0  0  0  0  0
    3.9282    3.5962    2.8360 H   0  0  0  0  0  0  0  0  0  0  0  0
    1.8499    2.3671    3.1301 H   0  0  0  0  0  0  0  0  0  0  0  0
    1.8002    3.3366    1.6707 H   0  0  0  0  0  0  0  0  0  0  0  0
    0.5610    4.9762    2.8401 H   0  0  0  0  0  0  0  0  0  0  0  0
    0.7269    3.1208    5.0865 H   0  0  0  0  0  0  0  0  0  0  0  0
   -0.1840    4.6286    5.0587 H   0  0  0  0  0  0  0  0  0  0  0  0
    1.9442    4.8788    6.2242 H   0  0  0  0  0  0  0  0  0  0  0  0
    1.8945    5.8610    4.7734 H   0  0  0  0  0  0  0  0  0  0  0  0
    2.1546    1.7328    6.0824 H   0  0  0  0  0  0  0  0  0  0  0  0
    4.9467    1.9711    1.0707 H   0  0  0  0  0  0  0  0  0  0  0  0
    5.3327   -2.6345    0.3188 H   0  0  0  0  0  0  0  0  0  0  0  0
    4.3556   -4.1789   -1.4060 H   0  0  0  0  0  0  0  0  0  0  0  0
    2.2941   -3.6025   -2.4806 H   0  0  0  0  0  0  0  0  0  0  0  0
    1.8750   -1.1998   -2.8153 H   0  0  0  0  0  0  0  0  0  0  0  0
  1  2  2  0  0  0  0
  2  3  1  0  0  0  0
  2 25  1  0  0  0  0
  3  4  1  0  0  0  0
  3 35  1  0  0  0  0
  4  5  1  0  0  0  0
  4  9  2  0  0  0  0
  5  6  2  0  0  0  0
  5 36  1  0  0  0  0
  6  7  1  0  0  0  0
  6 37  1  0  0  0  0
  7  8  2  0  0  0  0
  7 38  1  0  0  0  0
  8  9  1  0  0  0  0
  8 39  1  0  0  0  0
  9 10  1  0  0  0  0
 10 11  2  0  0  0  0
 10 24  1  0  0  0  0
 11 12  1  0  0  0  0
 11 40  1  0  0  0  0
 12 13  1  0  0  0  0
 12 23  1  0  0  0  0
 13 14  1  0  0  0  0
 13 21  2  0  0  0  0
 14 15  1  0  0  0  0
 14 41  1  0  0  0  0
 14 42  1  0  0  0  0
 15 16  1  0  0  0  0
 15 20  1  0  0  0  0
 16 17  1  0  0  0  0
 16 43  1  0  0  0  0
 16 44  1  0  0  0  0
 17 18  1  0  0  0  0
 17 45  1  0  0  0  0
 17 46  1  0  0  0  0
 18 19  1  0  0  0  0
 18 47  1  0  0  0  0
 19 20  1  0  0  0  0
 19 48  1  0  0  0  0
 19 49  1  0  0  0  0
 20 50  1  0  0  0  0
 20 51  1  0  0  0  0
 21 22  1  0  0  0  0
 21 52  1  0  0  0  0
 22 23  1  0  0  0  0
 23 24  2  0  0  0  0
 25 26  1  0  0  0  0
 25 34  2  0  0  0  0
 26 27  2  0  0  0  0
 26 53  1  0  0  0  0
 27 28  1  0  0  0  0
 28 29  1  0  0  0  0
 28 33  2  0  0  0  0
 29 30  2  0  0  0  0
 29 54  1  0  0  0  0
 30 31  1  0  0  0  0
 30 55  1  0  0  0  0
 31 32  2  0  0  0  0
 31 56  1  0  0  0  0
 32 33  1  0  0  0  0
 32 57  1  0  0  0  0
 33 34  1  0  0  0  0
M  END
