REMARK  Name = 
REMARK  5 active torsions:
REMARK  status: ('A' for Active; 'I' for Inactive)
REMARK    1  A    between atoms: C_2  and  C_25
REMARK    2  A    between atoms: N_3  and  C_4
REMARK    3  A    between atoms: C_9  and  C_10
REMARK    4  A    between atoms: C_13  and  C_14
REMARK    5  A    between atoms: C_14  and  N_15
REMARK                            x       y       z     vdW  Elec       q    Type
REMARK                         _______ _______ _______ _____ _____    ______ ____
ROOT
ATOM      1  C   UNL     1       4.417  -1.056  -0.717  0.00  0.00    +0.000 A 
ATOM      2  C   UNL     1       5.096  -1.357  -1.886  0.00  0.00    +0.000 A 
ATOM      3  C   UNL     1       6.475  -1.612  -1.698  0.00  0.00    +0.000 A 
ATOM      4  C   UNL     1       7.162  -1.262  -0.626  0.00  0.00    +0.000 A 
ATOM      5  C   UNL     1       6.433  -0.910   0.475  0.00  0.00    +0.000 A 
ATOM      6  C   UNL     1       5.068  -0.768   0.403  0.00  0.00    +0.000 A 
ENDROOT
BRANCH   6   7
ATOM      7  C   UNL     1       4.297  -0.276   1.617  0.00  0.00    +0.000 A 
ATOM      8  C   UNL     1       4.579   0.895   2.261  0.00  0.00    +0.000 A 
ATOM      9  N   UNL     1       3.741   0.935   3.345  0.00  0.00    +0.000 N 
ATOM     10  C   UNL     1       3.461   1.782   4.418  0.00  0.00    +0.000 A 
ATOM     11  C   UNL     1       2.514   1.254   5.196  0.00  0.00    +0.000 A 
ATOM     12  S   UNL     1       1.916  -0.287   4.640  0.00  0.00    +0.000 S 
ATOM     13  C   UNL     1       3.005  -0.210   3.298  0.00  0.00    +0.000 A 
ATOM     14  N   UNL     1       3.293  -0.974   2.275  0.00  0.00    +0.000 NA
BRANCH  10  15
ATOM     15  C   UNL     1       4.139   3.119   4.665  0.00  0.00    +0.000 C 
BRANCH  15  16
ATOM     16  N   UNL     1       3.130   4.188   4.662  0.00  0.00    +0.000 NA
ATOM     17  C   UNL     1       3.061   4.108   3.198  0.00  0.00    +0.000 C 
ATOM     18  C   UNL     1       1.822   3.363   2.740  0.00  0.00    +0.000 C 
ATOM     19  N   UNL     1       0.614   4.036   3.233  0.00  0.00    +0.000 NA
ATOM     20  C   UNL     1       0.683   4.117   4.697  0.00  0.00    +0.000 C 
ATOM     21  C   UNL     1       1.922   4.862   5.154  0.00  0.00    +0.000 C 
ATOM     22  H   UNL     1       0.561   4.976   2.840  0.00  0.00    +0.000 HD
ENDBRANCH  15  16
ENDBRANCH  10  15
ENDBRANCH   6   7
BRANCH   1  25
ATOM     23  O   UNL     1       0.941   0.040  -0.070  0.00  0.00    +0.000 OA
ATOM     24  C   UNL     1       2.212   0.040  -0.070  0.00  0.00    +0.000 C 
ATOM     25  N   UNL     1       2.946  -1.056  -0.717  0.00  0.00    +0.000 N 
ATOM     26  H   UNL     1       2.437  -1.817  -1.166  0.00  0.00    +0.000 HD
BRANCH  24  27
ATOM     27  C   UNL     1       2.971   1.173   0.600  0.00  0.00    +0.000 A 
ATOM     28  C   UNL     1       4.412   1.173   0.600  0.00  0.00    +0.000 A 
ATOM     29  N   UNL     1       5.108   0.135  -0.014  0.00  0.00    +0.000 NA
ATOM     30  C   UNL     1       4.373  -0.962  -0.661  0.00  0.00    +0.000 A 
ATOM     31  C   UNL     1       4.659  -2.299  -0.442  0.00  0.00    +0.000 A 
ATOM     32  C   UNL     1       3.980  -3.181  -1.315  0.00  0.00    +0.000 A 
ATOM     33  C   UNL     1       2.914  -2.859  -2.026  0.00  0.00    +0.000 A 
ATOM     34  C   UNL     1       2.646  -1.524  -2.148  0.00  0.00    +0.000 A 
ATOM     35  C   UNL     1       3.353  -0.592  -1.427  0.00  0.00    +0.000 A 
ATOM     36  N   UNL     1       2.275   2.212   1.213  0.00  0.00    +0.000 NA
ENDBRANCH  24  27
ENDBRANCH   1  25
TORSDOF 5
