
 OpenBabel03132512093D

 51 54  0  0  0  0  0  0  0  0999 V2000
    1.0823    0.0514    0.0242 C   0  0  0  0  0  0  0  0  0  0  0  0
    0.6089   -1.2152   -0.4096 O   0  0  0  0  0  0  0  0  0  0  0  0
    0.9520   -1.6973   -1.7004 C   0  0  0  0  0  0  0  0  0  0  0  0
   -0.0721   -2.1529   -2.5394 C   0  0  0  0  0  0  0  0  0  0  0  0
    0.2515   -2.5079   -3.8581 C   0  0  0  0  0  0  0  0  0  0  0  0
   -0.4444   -2.9680   -4.9082 N   0  0  0  0  0  0  0  0  0  0  0  0
    0.3893   -3.1302   -5.9168 C   0  0  0  0  0  0  0  0  0  0  0  0
    1.6210   -2.7938   -5.5573 N   0  0  0  0  0  0  0  0  0  0  0  0
    2.8111   -2.8552   -6.4180 C   0  0  0  0  0  0  0  0  0  0  0  0
    3.9275   -3.5898   -6.1930 C   0  0  0  0  0  0  0  0  0  0  0  0
    4.7505   -3.3477   -7.2421 C   0  0  0  0  0  0  0  0  0  0  0  0
    6.0404   -3.9055   -7.4452 O   0  0  0  0  0  0  0  0  0  0  0  0
    6.5797   -4.8121   -6.4946 C   0  0  0  0  0  0  0  0  0  0  0  0
    6.6854   -4.1252   -5.1427 C   0  0  0  0  0  0  0  0  0  0  0  0
    5.8580   -2.9954   -4.8915 C   0  0  0  0  0  0  0  0  0  0  0  0
    6.1030   -2.2000   -3.7601 C   0  0  0  0  0  0  0  0  0  0  0  0
    6.8844   -2.6349   -2.8157 C   0  0  0  0  0  0  0  0  0  0  0  0
    7.4745   -3.9015   -2.9200 C   0  0  0  0  0  0  0  0  0  0  0  0
    7.4808   -4.5699   -4.1684 C   0  0  0  0  0  0  0  0  0  0  0  0
    8.5510   -6.0046   -4.4379 S   0  0  0  0  0  0  0  0  0  0  0  0
   10.2792   -5.5210   -4.2021 C   0  0  0  0  0  0  0  0  0  0  0  0
    8.1886   -7.1061   -3.4390 O   0  0  0  0  0  0  0  0  0  0  0  0
    8.3569   -6.5251   -5.8640 O   0  0  0  0  0  0  0  0  0  0  0  0
    4.1387   -2.5074   -8.0313 C   0  0  0  0  0  0  0  0  0  0  0  0
    4.7009   -1.9615   -9.3337 C   0  0  0  0  0  0  0  0  0  0  0  0
    5.1673   -1.5086  -10.4142 N   0  0  0  0  0  0  0  0  0  0  0  0
    2.9879   -2.2115   -7.5395 S   0  0  0  0  0  0  0  0  0  0  0  0
    1.6016   -2.3921   -4.2907 C   0  0  0  0  0  0  0  0  0  0  0  0
    2.5498   -1.9408   -3.4237 C   0  0  0  0  0  0  0  0  0  0  0  0
    2.2302   -1.6049   -2.1649 C   0  0  0  0  0  0  0  0  0  0  0  0
    3.2506   -1.1409   -1.2931 O   0  0  0  0  0  0  0  0  0  0  0  0
    2.9330   -0.7803    0.0432 C   0  0  0  0  0  0  0  0  0  0  0  0
    0.7256    0.2455    1.0142 H   0  0  0  0  0  0  0  0  0  0  0  0
    0.7256    0.8117   -0.6389 H   0  0  0  0  0  0  0  0  0  0  0  0
    2.1523    0.0514    0.0242 H   0  0  0  0  0  0  0  0  0  0  0  0
   -1.0783   -2.2286   -2.1835 H   0  0  0  0  0  0  0  0  0  0  0  0
    0.1115   -3.4833   -6.8879 H   0  0  0  0  0  0  0  0  0  0  0  0
    4.1198   -4.2301   -5.3575 H   0  0  0  0  0  0  0  0  0  0  0  0
    5.9392   -5.6652   -6.4121 H   0  0  0  0  0  0  0  0  0  0  0  0
    7.5522   -5.1255   -6.8124 H   0  0  0  0  0  0  0  0  0  0  0  0
    5.0567   -2.7539   -5.5581 H   0  0  0  0  0  0  0  0  0  0  0  0
    5.6467   -1.2359   -3.6752 H   0  0  0  0  0  0  0  0  0  0  0  0
    7.0768   -2.0247   -1.9581 H   0  0  0  0  0  0  0  0  0  0  0  0
    7.9178   -4.3609   -2.0613 H   0  0  0  0  0  0  0  0  0  0  0  0
   10.4149   -5.1571   -3.2051 H   0  0  0  0  0  0  0  0  0  0  0  0
   10.9118   -6.3691   -4.3614 H   0  0  0  0  0  0  0  0  0  0  0  0
   10.5325   -4.7509   -4.9005 H   0  0  0  0  0  0  0  0  0  0  0  0
    3.5646   -1.8528   -3.7513 H   0  0  0  0  0  0  0  0  0  0  0  0
    2.2166    0.0145    0.0375 H   0  0  0  0  0  0  0  0  0  0  0  0
    2.5226   -1.6268    0.5531 H   0  0  0  0  0  0  0  0  0  0  0  0
    3.8205   -0.4570    0.5459 H   0  0  0  0  0  0  0  0  0  0  0  0
  1  2  1  0  0  0  0
  1 33  1  0  0  0  0
  1 34  1  0  0  0  0
  1 35  1  0  0  0  0
  2  3  1  0  0  0  0
  3  4  1  0  0  0  0
  3 30  2  0  0  0  0
  4  5  2  0  0  0  0
  4 36  1  0  0  0  0
  5  6  1  0  0  0  0
  5 28  1  0  0  0  0
  6  7  2  0  0  0  0
  7  8  1  0  0  0  0
  7 37  1  0  0  0  0
  8  9  1  0  0  0  0
  8 28  1  0  0  0  0
  9 10  2  0  0  0  0
  9 27  1  0  0  0  0
 10 11  1  0  0  0  0
 10 38  1  0  0  0  0
 11 12  1  0  0  0  0
 11 24  2  0  0  0  0
 12 13  1  0  0  0  0
 13 14  1  0  0  0  0
 13 39  1  0  0  0  0
 13 40  1  0  0  0  0
 14 15  1  0  0  0  0
 14 19  2  0  0  0  0
 15 16  2  0  0  0  0
 15 41  1  0  0  0  0
 16 17  1  0  0  0  0
 16 42  1  0  0  0  0
 17 18  2  0  0  0  0
 17 43  1  0  0  0  0
 18 19  1  0  0  0  0
 18 44  1  0  0  0  0
 19 20  1  0  0  0  0
 20 21  1  0  0  0  0
 20 22  2  0  0  0  0
 20 23  2  0  0  0  0
 21 45  1  0  0  0  0
 21 46  1  0  0  0  0
 21 47  1  0  0  0  0
 24 25  1  0  0  0  0
 24 27  1  0  0  0  0
 25 26  3  0  0  0  0
 28 29  2  0  0  0  0
 29 30  1  0  0  0  0
 29 48  1  0  0  0  0
 30 31  1  0  0  0  0
 31 32  1  0  0  0  0
 32 49  1  0  0  0  0
 32 50  1  0  0  0  0
 32 51  1  0  0  0  0
M  END
