REMARK  Name = 
REMARK  11 active torsions:
REMARK  status: ('A' for Active; 'I' for Inactive)
REMARK    1  A    between atoms: C_1  and  O_2
REMARK    2  A    between atoms: O_2  and  C_3
REMARK    3  A    between atoms: N_8  and  C_9
REMARK    4  A    between atoms: C_11  and  O_12
REMARK    5  A    between atoms: O_12  and  C_13
REMARK    6  A    between atoms: C_13  and  C_14
REMARK    7  A    between atoms: C_19  and  S_20
REMARK    8  A    between atoms: S_20  and  C_21
REMARK    9  A    between atoms: C_24  and  C_25
REMARK   10  A    between atoms: C_30  and  O_31
REMARK   11  A    between atoms: O_31  and  C_32
REMARK                            x       y       z     vdW  Elec       q    Type
REMARK                         _______ _______ _______ _____ _____    ______ ____
ROOT
ATOM      1  C   UNL     1       3.156   5.589   4.080  0.00  0.00    +0.000 A 
ATOM      2  C   UNL     1       4.308   5.918   3.446  0.00  0.00    +0.000 A 
ATOM      3  C   UNL     1       5.193   6.235   4.422  0.00  0.00    +0.000 A 
ATOM      4  C   UNL     1       4.581   6.088   5.566  0.00  0.00    +0.000 A 
ATOM      5  S   UNL     1       3.372   5.701   5.362  0.00  0.00    +0.000 S 
ENDROOT
BRANCH   1  11
ATOM      6  C   UNL     1       0.798   2.208   0.908  0.00  0.00    +0.000 A 
ATOM      7  C   UNL     1      -0.103   3.183   1.353  0.00  0.00    +0.000 A 
ATOM      8  C   UNL     1       0.364   4.178   2.225  0.00  0.00    +0.000 A 
ATOM      9  N   UNL     1      -0.193   5.235   2.834  0.00  0.00    +0.000 NA
ATOM     10  C   UNL     1       0.737   5.834   3.554  0.00  0.00    +0.000 A 
ATOM     11  N   UNL     1       1.896   5.201   3.430  0.00  0.00    +0.000 N 
ATOM     12  C   UNL     1       1.730   4.159   2.622  0.00  0.00    +0.000 A 
ATOM     13  C   UNL     1       2.554   3.181   2.154  0.00  0.00    +0.000 A 
ATOM     14  C   UNL     1       2.097   2.235   1.320  0.00  0.00    +0.000 A 
BRANCH   6  16
ATOM     15  C   UNL     1       0.928  -0.059  -0.036  0.00  0.00    +0.000 C 
ATOM     16  O   UNL     1       0.455   1.278  -0.108  0.00  0.00    +0.000 OA
ENDBRANCH   6  16
BRANCH  14  17
ATOM     17  O   UNL     1       2.991   1.235   0.853  0.00  0.00    +0.000 OA
ATOM     18  C   UNL     1       2.527   0.225  -0.030  0.00  0.00    +0.000 C 
ENDBRANCH  14  17
ENDBRANCH   1  11
BRANCH   4  19
ATOM     19  C   UNL     1       5.202   6.338   6.930  0.00  0.00    +0.000 C 
ATOM     20  N   UNL     1       5.718   6.545   8.062  0.00  0.00    +0.000 NA
ENDBRANCH   4  19
BRANCH   3  21
ATOM     21  O   UNL     1       6.538   6.649   4.236  0.00  0.00    +0.000 OA
BRANCH  21  22
ATOM     22  C   UNL     1       7.071   6.764   2.925  0.00  0.00    +0.000 C 
BRANCH  22  23
ATOM     23  C   UNL     1       7.003   5.413   2.231  0.00  0.00    +0.000 A 
ATOM     24  C   UNL     1       5.901   4.529   2.395  0.00  0.00    +0.000 A 
ATOM     25  C   UNL     1       6.029   3.187   2.001  0.00  0.00    +0.000 A 
ATOM     26  C   UNL     1       7.026   2.822   1.250  0.00  0.00    +0.000 A 
ATOM     27  C   UNL     1       7.969   3.768   0.826  0.00  0.00    +0.000 A 
ATOM     28  C   UNL     1       8.021   5.035   1.455  0.00  0.00    +0.000 A 
BRANCH  28  29
ATOM     29  S   UNL     1       9.446   6.125   1.212  0.00  0.00    +0.000 S 
ATOM     30  C   UNL     1      10.946   5.295   1.794  0.00  0.00    +0.000 C 
ATOM     31  O   UNL     1       9.589   6.453  -0.276  0.00  0.00    +0.000 OA
ATOM     32  O   UNL     1       9.239   7.419   2.003  0.00  0.00    +0.000 OA
ENDBRANCH  28  29
ENDBRANCH  22  23
ENDBRANCH  21  22
ENDBRANCH   3  21
TORSDOF 8
