REMARK  Name = 
REMARK  11 active torsions:
REMARK  status: ('A' for Active; 'I' for Inactive)
REMARK    1  A    between atoms: C_1  and  O_2
REMARK    2  A    between atoms: O_2  and  C_3
REMARK    3  A    between atoms: N_8  and  C_9
REMARK    4  A    between atoms: C_11  and  O_12
REMARK    5  A    between atoms: O_12  and  C_13
REMARK    6  A    between atoms: C_13  and  C_14
REMARK    7  A    between atoms: C_19  and  S_20
REMARK    8  A    between atoms: S_20  and  C_21
REMARK    9  A    between atoms: C_24  and  C_25
REMARK   10  A    between atoms: C_30  and  O_31
REMARK   11  A    between atoms: O_31  and  C_32
REMARK                            x       y       z     vdW  Elec       q    Type
REMARK                         _______ _______ _______ _____ _____    ______ ____
ROOT
ATOM      1  C   UNL     1       2.811  -2.855  -6.418  0.00  0.00    +0.000 A 
ATOM      2  C   UNL     1       3.928  -3.590  -6.193  0.00  0.00    +0.000 A 
ATOM      3  C   UNL     1       4.750  -3.348  -7.242  0.00  0.00    +0.000 A 
ATOM      4  C   UNL     1       4.139  -2.507  -8.031  0.00  0.00    +0.000 A 
ATOM      5  S   UNL     1       2.988  -2.212  -7.540  0.00  0.00    +0.000 S 
ENDROOT
BRANCH   1  11
ATOM      6  C   UNL     1       0.952  -1.697  -1.700  0.00  0.00    +0.000 A 
ATOM      7  C   UNL     1      -0.072  -2.153  -2.539  0.00  0.00    +0.000 A 
ATOM      8  C   UNL     1       0.252  -2.508  -3.858  0.00  0.00    +0.000 A 
ATOM      9  N   UNL     1      -0.444  -2.968  -4.908  0.00  0.00    +0.000 NA
ATOM     10  C   UNL     1       0.389  -3.130  -5.917  0.00  0.00    +0.000 A 
ATOM     11  N   UNL     1       1.621  -2.794  -5.557  0.00  0.00    +0.000 N 
ATOM     12  C   UNL     1       1.602  -2.392  -4.291  0.00  0.00    +0.000 A 
ATOM     13  C   UNL     1       2.550  -1.941  -3.424  0.00  0.00    +0.000 A 
ATOM     14  C   UNL     1       2.230  -1.605  -2.165  0.00  0.00    +0.000 A 
BRANCH   6  16
ATOM     15  C   UNL     1       1.082   0.051   0.024  0.00  0.00    +0.000 C 
ATOM     16  O   UNL     1       0.609  -1.215  -0.410  0.00  0.00    +0.000 OA
ENDBRANCH   6  16
BRANCH  14  17
ATOM     17  O   UNL     1       3.251  -1.141  -1.293  0.00  0.00    +0.000 OA
ATOM     18  C   UNL     1       2.933  -0.780   0.043  0.00  0.00    +0.000 C 
ENDBRANCH  14  17
ENDBRANCH   1  11
BRANCH   4  19
ATOM     19  C   UNL     1       4.701  -1.962  -9.334  0.00  0.00    +0.000 C 
ATOM     20  N   UNL     1       5.167  -1.509 -10.414  0.00  0.00    +0.000 NA
ENDBRANCH   4  19
BRANCH   3  21
ATOM     21  O   UNL     1       6.040  -3.905  -7.445  0.00  0.00    +0.000 OA
BRANCH  21  22
ATOM     22  C   UNL     1       6.580  -4.812  -6.495  0.00  0.00    +0.000 C 
BRANCH  22  23
ATOM     23  C   UNL     1       6.685  -4.125  -5.143  0.00  0.00    +0.000 A 
ATOM     24  C   UNL     1       5.858  -2.995  -4.891  0.00  0.00    +0.000 A 
ATOM     25  C   UNL     1       6.103  -2.200  -3.760  0.00  0.00    +0.000 A 
ATOM     26  C   UNL     1       6.884  -2.635  -2.816  0.00  0.00    +0.000 A 
ATOM     27  C   UNL     1       7.474  -3.901  -2.920  0.00  0.00    +0.000 A 
ATOM     28  C   UNL     1       7.481  -4.570  -4.168  0.00  0.00    +0.000 A 
BRANCH  28  29
ATOM     29  S   UNL     1       8.551  -6.005  -4.438  0.00  0.00    +0.000 S 
ATOM     30  C   UNL     1      10.279  -5.521  -4.202  0.00  0.00    +0.000 C 
ATOM     31  O   UNL     1       8.189  -7.106  -3.439  0.00  0.00    +0.000 OA
ATOM     32  O   UNL     1       8.357  -6.525  -5.864  0.00  0.00    +0.000 OA
ENDBRANCH  28  29
ENDBRANCH  22  23
ENDBRANCH  21  22
ENDBRANCH   3  21
TORSDOF 8
