
 OpenBabel03132514253D

160163  0  0  0  0  0  0  0  0999 V2000
    0.9497   -0.0114   -0.0857 C   0  0  0  0  0  0  0  0  0  0  0  0
    0.4764   -1.1894   -0.7218 O   0  0  0  0  0  0  0  0  0  0  0  0
    0.9497   -1.2275   -2.0600 C   0  0  0  0  0  0  0  0  0  0  0  0
    2.4697   -1.2275   -2.0600 C   0  0  0  0  0  0  0  0  0  0  0  0
    2.9764   -2.4477   -1.3085 C   0  0  0  0  0  0  0  0  0  0  0  0
    2.3222   -3.8163   -1.5119 C   0  0  0  0  0  0  0  0  0  0  0  0
    2.2644   -4.1131   -2.9088 C   0  0  0  0  0  0  0  0  0  0  0  0
    3.5426   -4.1827   -3.5434 C   0  0  0  0  0  0  0  0  0  0  0  0
    3.3612   -4.5301   -5.0120 C   0  0  0  0  0  0  0  0  0  0  0  0
    4.2461   -2.8289   -3.4221 C   0  0  0  0  0  0  0  0  0  0  0  0
    3.4910   -1.8357   -4.1001 O   0  0  0  0  0  0  0  0  0  0  0  0
    4.3720   -2.4590   -1.9409 O   0  0  0  0  0  0  0  0  0  0  0  0
    5.6304   -2.9175   -4.0437 C   0  0  0  0  0  0  0  0  0  0  0  0
    6.0282   -4.0105   -4.5559 O   0  0  0  0  0  0  0  0  0  0  0  0
    6.5389   -1.6990   -4.0525 C   0  0  0  0  0  0  0  0  0  0  0  0
    6.1411   -0.6060   -3.5403 O   0  0  0  0  0  0  0  0  0  0  0  0
    7.8777   -1.7847   -4.6537 N   0  0  0  0  0  0  0  0  0  0  0  0
    9.1646   -1.2329   -4.0360 C   0  0  0  0  0  0  0  0  0  0  0  0
   10.1132   -2.2916   -3.8875 C   0  0  0  0  0  0  0  0  0  0  0  0
   10.4936   -2.9103   -5.1179 C   0  0  0  0  0  0  0  0  0  0  0  0
    9.2604   -3.5299   -5.7794 C   0  0  0  0  0  0  0  0  0  0  0  0
    8.2069   -2.4397   -5.9991 C   0  0  0  0  0  0  0  0  0  0  0  0
    6.9493   -3.0535   -6.5924 C   0  0  0  0  0  0  0  0  0  0  0  0
    6.5235   -2.6612   -7.7237 O   0  0  0  0  0  0  0  0  0  0  0  0
    6.2501   -4.0652   -5.8825 O   0  0  0  0  0  0  0  0  0  0  0  0
    5.0752   -4.6387   -6.4367 C   0  0  0  0  0  0  0  0  0  0  0  0
    4.0332   -3.5527   -6.6497 C   0  0  0  0  0  0  0  0  0  0  0  0
    4.5826   -2.5032   -7.6021 C   0  0  0  0  0  0  0  0  0  0  0  0
    2.7756   -4.1665   -7.2429 C   0  0  0  0  0  0  0  0  0  0  0  0
    2.2262   -5.2160   -6.2905 C   0  0  0  0  0  0  0  0  0  0  0  0
    0.7416   -4.8445   -6.2750 C   0  0  0  0  0  0  0  0  0  0  0  0
    0.2089   -4.9580   -7.5963 C   0  0  0  0  0  0  0  0  0  0  0  0
    0.2855   -6.2751   -8.1447 C   0  0  0  0  0  0  0  0  0  0  0  0
   -0.2917   -6.2824   -9.4420 O   0  0  0  0  0  0  0  0  0  0  0  0
    0.2454   -5.4542  -10.4628 C   0  0  0  0  0  0  0  0  0  0  0  0
    1.2428   -4.7064  -10.2152 O   0  0  0  0  0  0  0  0  0  0  0  0
   -0.3724   -5.4620  -11.8515 C   0  0  0  0  0  0  0  0  0  0  0  0
   -0.2906   -6.8634  -12.4346 C   0  0  0  0  0  0  0  0  0  0  0  0
   -1.8285   -5.0353  -11.7607 C   0  0  0  0  0  0  0  0  0  0  0  0
   -1.9049   -3.7262  -11.2159 O   0  0  0  0  0  0  0  0  0  0  0  0
    0.3839   -4.4952  -12.7480 C   0  0  0  0  0  0  0  0  0  0  0  0
    0.3074   -3.1861  -12.2033 O   0  0  0  0  0  0  0  0  0  0  0  0
    1.7517   -6.7046   -8.2358 C   0  0  0  0  0  0  0  0  0  0  0  0
    2.4494   -5.8380   -9.1182 O   0  0  0  0  0  0  0  0  0  0  0  0
    2.3763   -4.5066   -8.6302 C   0  0  0  0  0  0  0  0  0  0  0  0
    2.3826   -6.6372   -6.8414 C   0  0  0  0  0  0  0  0  0  0  0  0
    5.4089   -5.2890   -7.7694 C   0  0  0  0  0  0  0  0  0  0  0  0
    6.4509   -6.3750   -7.5565 C   0  0  0  0  0  0  0  0  0  0  0  0
    6.1873   -7.5784   -7.8686 O   0  0  0  0  0  0  0  0  0  0  0  0
    7.8080   -6.0216   -6.9703 C   0  0  0  0  0  0  0  0  0  0  0  0
    8.5042   -5.0169   -7.8738 C   0  0  0  0  0  0  0  0  0  0  0  0
    7.6211   -5.4161   -5.5887 C   0  0  0  0  0  0  0  0  0  0  0  0
    8.1833   -6.0125   -4.5029 C   0  0  0  0  0  0  0  0  0  0  0  0
    7.9964   -5.4070   -3.1213 C   0  0  0  0  0  0  0  0  0  0  0  0
    8.9985   -7.2843   -4.6714 C   0  0  0  0  0  0  0  0  0  0  0  0
    8.1810   -8.2993   -5.2353 O   0  0  0  0  0  0  0  0  0  0  0  0
   10.1767   -7.0127   -5.5924 C   0  0  0  0  0  0  0  0  0  0  0  0
   10.9942   -5.9978   -5.0284 O   0  0  0  0  0  0  0  0  0  0  0  0
   10.2327   -4.8096   -4.8711 C   0  0  0  0  0  0  0  0  0  0  0  0
   10.9919   -8.2845   -5.7608 C   0  0  0  0  0  0  0  0  0  0  0  0
   11.1482   -8.7908   -6.9160 O   0  0  0  0  0  0  0  0  0  0  0  0
   11.6201   -8.9509   -4.5477 C   0  0  0  0  0  0  0  0  0  0  0  0
   12.5834   -7.9830   -3.8801 C   0  0  0  0  0  0  0  0  0  0  0  0
   10.5301   -9.3411   -3.5628 C   0  0  0  0  0  0  0  0  0  0  0  0
    9.5668  -10.3089   -4.2303 C   0  0  0  0  0  0  0  0  0  0  0  0
   10.3217  -11.5529   -4.6697 C   0  0  0  0  0  0  0  0  0  0  0  0
    8.4768  -10.6991   -3.2454 C   0  0  0  0  0  0  0  0  0  0  0  0
    7.1739  -10.4328   -3.5321 C   0  0  0  0  0  0  0  0  0  0  0  0
    6.0839  -10.8230   -2.5472 C   0  0  0  0  0  0  0  0  0  0  0  0
    4.7810  -10.5568   -2.8339 C   0  0  0  0  0  0  0  0  0  0  0  0
    3.6910  -10.9470   -1.8489 C   0  0  0  0  0  0  0  0  0  0  0  0
    0.4431   -0.0074   -2.8116 C   0  0  0  0  0  0  0  0  0  0  0  0
   -1.0514    0.2291   -2.9573 C   0  0  0  0  0  0  0  0  0  0  0  0
    0.5930    0.0173    0.9227 H   0  0  0  0  0  0  0  0  0  0  0  0
    0.5931    0.8475   -0.6148 H   0  0  0  0  0  0  0  0  0  0  0  0
    2.0197   -0.0114   -0.0857 H   0  0  0  0  0  0  0  0  0  0  0  0
    0.5930   -2.1152   -2.5394 H   0  0  0  0  0  0  0  0  0  0  0  0
    2.8264   -1.2562   -3.0684 H   0  0  0  0  0  0  0  0  0  0  0  0
    2.8264   -0.3399   -1.5807 H   0  0  0  0  0  0  0  0  0  0  0  0
    2.8243   -2.3475   -0.2541 H   0  0  0  0  0  0  0  0  0  0  0  0
    2.8992   -4.5656   -1.0114 H   0  0  0  0  0  0  0  0  0  0  0  0
    1.3311   -3.8014   -1.1090 H   0  0  0  0  0  0  0  0  0  0  0  0
    1.7324   -3.3093   -3.3734 H   0  0  0  0  0  0  0  0  0  0  0  0
    1.7762   -5.0572   -3.0318 H   0  0  0  0  0  0  0  0  0  0  0  0
    4.1356   -4.9367   -3.0695 H   0  0  0  0  0  0  0  0  0  0  0  0
    4.3186   -4.5821   -5.4871 H   0  0  0  0  0  0  0  0  0  0  0  0
    2.8692   -5.4765   -5.0966 H   0  0  0  0  0  0  0  0  0  0  0  0
    2.7682   -3.7762   -5.4863 H   0  0  0  0  0  0  0  0  0  0  0  0
    2.5794   -1.7747   -3.6936 H   0  0  0  0  0  0  0  0  0  0  0  0
    9.5711   -0.4764   -4.6743 H   0  0  0  0  0  0  0  0  0  0  0  0
    8.9477   -0.8111   -3.0768 H   0  0  0  0  0  0  0  0  0  0  0  0
    9.6418   -3.0475   -3.2947 H   0  0  0  0  0  0  0  0  0  0  0  0
   10.9923   -1.8930   -3.4259 H   0  0  0  0  0  0  0  0  0  0  0  0
   11.2168   -3.6747   -4.9244 H   0  0  0  0  0  0  0  0  0  0  0  0
   10.9174   -2.1758   -5.7705 H   0  0  0  0  0  0  0  0  0  0  0  0
    8.8598   -4.2956   -5.1484 H   0  0  0  0  0  0  0  0  0  0  0  0
    9.5356   -3.9569   -6.7211 H   0  0  0  0  0  0  0  0  0  0  0  0
    8.5895   -1.7019   -6.6730 H   0  0  0  0  0  0  0  0  0  0  0  0
    4.6885   -5.3775   -5.7663 H   0  0  0  0  0  0  0  0  0  0  0  0
    3.7983   -3.0949   -5.7115 H   0  0  0  0  0  0  0  0  0  0  0  0
    4.8175   -2.9610   -8.5402 H   0  0  0  0  0  0  0  0  0  0  0  0
    3.8491   -1.7387   -7.7520 H   0  0  0  0  0  0  0  0  0  0  0  0
    5.4679   -2.0711   -7.1845 H   0  0  0  0  0  0  0  0  0  0  0  0
    2.0421   -3.4021   -7.3928 H   0  0  0  0  0  0  0  0  0  0  0  0
    3.0105   -4.6243   -8.1811 H   0  0  0  0  0  0  0  0  0  0  0  0
    2.7191   -5.2216   -5.3408 H   0  0  0  0  0  0  0  0  0  0  0  0
    0.2149   -5.5063   -5.6197 H   0  0  0  0  0  0  0  0  0  0  0  0
    0.6294   -3.8377   -5.9304 H   0  0  0  0  0  0  0  0  0  0  0  0
    0.8031   -4.3272   -8.2240 H   0  0  0  0  0  0  0  0  0  0  0  0
   -0.8196   -4.6641   -7.5704 H   0  0  0  0  0  0  0  0  0  0  0  0
   -0.2471   -6.9558   -7.5138 H   0  0  0  0  0  0  0  0  0  0  0  0
   -0.8230   -7.5439  -11.8035 H   0  0  0  0  0  0  0  0  0  0  0  0
   -0.7255   -6.8689  -13.4122 H   0  0  0  0  0  0  0  0  0  0  0  0
    0.7344   -7.1637  -12.4986 H   0  0  0  0  0  0  0  0  0  0  0  0
   -2.2634   -5.0408  -12.7383 H   0  0  0  0  0  0  0  0  0  0  0  0
   -2.3609   -5.7159  -11.1296 H   0  0  0  0  0  0  0  0  0  0  0  0
   -1.4984   -3.7210  -10.3023 H   0  0  0  0  0  0  0  0  0  0  0  0
    1.4089   -4.7956  -12.8120 H   0  0  0  0  0  0  0  0  0  0  0  0
   -0.0510   -4.5007  -13.7256 H   0  0  0  0  0  0  0  0  0  0  0  0
   -0.6505   -2.9054  -12.1435 H   0  0  0  0  0  0  0  0  0  0  0  0
    1.8089   -7.7066   -8.6067 H   0  0  0  0  0  0  0  0  0  0  0  0
    1.3516   -4.2045   -8.5698 H   0  0  0  0  0  0  0  0  0  0  0  0
    2.8202   -4.4582   -7.6578 H   0  0  0  0  0  0  0  0  0  0  0  0
    2.9020   -3.8536   -9.2951 H   0  0  0  0  0  0  0  0  0  0  0  0
    3.4208   -6.8888   -6.9022 H   0  0  0  0  0  0  0  0  0  0  0  0
    1.8904   -7.3300   -6.1913 H   0  0  0  0  0  0  0  0  0  0  0  0
    4.5236   -5.7211   -8.1871 H   0  0  0  0  0  0  0  0  0  0  0  0
    5.7956   -4.5502   -8.4399 H   0  0  0  0  0  0  0  0  0  0  0  0
    8.4050   -6.9064   -6.8942 H   0  0  0  0  0  0  0  0  0  0  0  0
    7.9072   -4.1322   -7.9499 H   0  0  0  0  0  0  0  0  0  0  0  0
    9.4595   -4.7682   -7.4612 H   0  0  0  0  0  0  0  0  0  0  0  0
    8.6358   -5.4431   -8.8464 H   0  0  0  0  0  0  0  0  0  0  0  0
    7.0472   -4.5208   -5.4701 H   0  0  0  0  0  0  0  0  0  0  0  0
    7.5063   -6.1143   -2.4853 H   0  0  0  0  0  0  0  0  0  0  0  0
    8.9517   -5.1583   -2.7087 H   0  0  0  0  0  0  0  0  0  0  0  0
    7.3994   -4.5223   -3.1974 H   0  0  0  0  0  0  0  0  0  0  0  0
    9.3588   -7.6061   -3.7166 H   0  0  0  0  0  0  0  0  0  0  0  0
    7.4058   -8.4780   -4.6294 H   0  0  0  0  0  0  0  0  0  0  0  0
    9.8164   -6.6909   -6.5471 H   0  0  0  0  0  0  0  0  0  0  0  0
    9.8723   -4.4879   -5.8258 H   0  0  0  0  0  0  0  0  0  0  0  0
    9.4032   -5.0008   -4.2227 H   0  0  0  0  0  0  0  0  0  0  0  0
   10.8487   -4.0448   -4.4461 H   0  0  0  0  0  0  0  0  0  0  0  0
   12.1515   -9.8266   -4.8570 H   0  0  0  0  0  0  0  0  0  0  0  0
   12.0520   -7.1073   -3.5708 H   0  0  0  0  0  0  0  0  0  0  0  0
   13.0257   -8.4521   -3.0261 H   0  0  0  0  0  0  0  0  0  0  0  0
   13.3507   -7.7083   -4.5734 H   0  0  0  0  0  0  0  0  0  0  0  0
   10.9724   -9.8101   -2.7088 H   0  0  0  0  0  0  0  0  0  0  0  0
    9.9987   -8.4653   -3.2535 H   0  0  0  0  0  0  0  0  0  0  0  0
    9.1246   -9.8398   -5.0843 H   0  0  0  0  0  0  0  0  0  0  0  0
   10.7639  -12.0220   -3.8157 H   0  0  0  0  0  0  0  0  0  0  0  0
    9.6436  -12.2342   -5.1396 H   0  0  0  0  0  0  0  0  0  0  0  0
   11.0890  -11.2782   -5.3630 H   0  0  0  0  0  0  0  0  0  0  0  0
    8.7343  -11.1832   -2.3266 H   0  0  0  0  0  0  0  0  0  0  0  0
    6.9164   -9.9487   -4.4509 H   0  0  0  0  0  0  0  0  0  0  0  0
    6.3414  -11.3071   -1.6283 H   0  0  0  0  0  0  0  0  0  0  0  0
    4.5235  -10.0727   -3.7527 H   0  0  0  0  0  0  0  0  0  0  0  0
    3.9485  -11.4311   -0.9301 H   0  0  0  0  0  0  0  0  0  0  0  0
   -1.4942   -0.5958   -3.4752 H   0  0  0  0  0  0  0  0  0  0  0  0
   -1.4942    0.3206   -1.9875 H   0  0  0  0  0  0  0  0  0  0  0  0
   -1.2177    1.1291   -3.5116 H   0  0  0  0  0  0  0  0  0  0  0  0
  1  2  1  0  0  0  0
  1 74  1  0  0  0  0
  1 75  1  0  0  0  0
  1 76  1  0  0  0  0
  2  3  1  0  0  0  0
  3  4  1  0  0  0  0
  3 72  1  0  0  0  0
  3 77  1  0  0  0  0
  4  5  1  0  0  0  0
  4 78  1  0  0  0  0
  4 79  1  0  0  0  0
  5  6  1  0  0  0  0
  5 12  1  0  0  0  0
  5 80  1  0  0  0  0
  6  7  1  0  0  0  0
  6 81  1  0  0  0  0
  6 82  1  0  0  0  0
  7  8  1  0  0  0  0
  7 83  1  0  0  0  0
  7 84  1  0  0  0  0
  8  9  1  0  0  0  0
  8 10  1  0  0  0  0
  8 85  1  0  0  0  0
  9 86  1  0  0  0  0
  9 87  1  0  0  0  0
  9 88  1  0  0  0  0
 10 11  1  0  0  0  0
 10 12  1  0  0  0  0
 10 13  1  0  0  0  0
 11 89  1  0  0  0  0
 13 14  2  0  0  0  0
 13 15  1  0  0  0  0
 15 16  2  0  0  0  0
 15 17  1  0  0  0  0
 17 18  1  0  0  0  0
 17 22  1  0  0  0  0
 18 19  1  0  0  0  0
 18 90  1  0  0  0  0
 18 91  1  0  0  0  0
 19 20  1  0  0  0  0
 19 92  1  0  0  0  0
 19 93  1  0  0  0  0
 20 21  1  0  0  0  0
 20 94  1  0  0  0  0
 20 95  1  0  0  0  0
 21 22  1  0  0  0  0
 21 96  1  0  0  0  0
 21 97  1  0  0  0  0
 22 23  1  0  0  0  0
 22 98  1  0  0  0  0
 23 24  2  0  0  0  0
 23 25  1  0  0  0  0
 25 26  1  0  0  0  0
 26 27  1  0  0  0  0
 26 47  1  0  0  0  0
 26 99  1  0  0  0  0
 27 28  1  0  0  0  0
 27 29  1  0  0  0  0
 27100  1  0  0  0  0
 28101  1  0  0  0  0
 28102  1  0  0  0  0
 28103  1  0  0  0  0
 29 30  1  0  0  0  0
 29104  1  0  0  0  0
 29105  1  0  0  0  0
 30 31  1  0  0  0  0
 30 46  1  0  0  0  0
 30106  1  0  0  0  0
 31 32  1  0  0  0  0
 31107  1  0  0  0  0
 31108  1  0  0  0  0
 32 33  1  0  0  0  0
 32109  1  0  0  0  0
 32110  1  0  0  0  0
 33 34  1  0  0  0  0
 33 43  1  0  0  0  0
 33111  1  0  0  0  0
 34 35  1  0  0  0  0
 35 36  2  0  0  0  0
 35 37  1  0  0  0  0
 37 38  1  0  0  0  0
 37 39  1  0  0  0  0
 37 41  1  0  0  0  0
 38112  1  0  0  0  0
 38113  1  0  0  0  0
 38114  1  0  0  0  0
 39 40  1  0  0  0  0
 39115  1  0  0  0  0
 39116  1  0  0  0  0
 40117  1  0  0  0  0
 41 42  1  0  0  0  0
 41118  1  0  0  0  0
 41119  1  0  0  0  0
 42120  1  0  0  0  0
 43 44  1  0  0  0  0
 43 46  1  0  0  0  0
 43121  1  0  0  0  0
 44 45  1  0  0  0  0
 45122  1  0  0  0  0
 45123  1  0  0  0  0
 45124  1  0  0  0  0
 46125  1  0  0  0  0
 46126  1  0  0  0  0
 47 48  1  0  0  0  0
 47127  1  0  0  0  0
 47128  1  0  0  0  0
 48 49  2  0  0  0  0
 48 50  1  0  0  0  0
 50 51  1  0  0  0  0
 50 52  1  0  0  0  0
 50129  1  0  0  0  0
 51130  1  0  0  0  0
 51131  1  0  0  0  0
 51132  1  0  0  0  0
 52 53  2  0  0  0  0
 52133  1  0  0  0  0
 53 54  1  0  0  0  0
 53 55  1  0  0  0  0
 54134  1  0  0  0  0
 54135  1  0  0  0  0
 54136  1  0  0  0  0
 55 56  1  0  0  0  0
 55 57  1  0  0  0  0
 55137  1  0  0  0  0
 56138  1  0  0  0  0
 57 58  1  0  0  0  0
 57 60  1  0  0  0  0
 57139  1  0  0  0  0
 58 59  1  0  0  0  0
 59140  1  0  0  0  0
 59141  1  0  0  0  0
 59142  1  0  0  0  0
 60 61  2  0  0  0  0
 60 62  1  0  0  0  0
 62 63  1  0  0  0  0
 62 64  1  0  0  0  0
 62143  1  0  0  0  0
 63144  1  0  0  0  0
 63145  1  0  0  0  0
 63146  1  0  0  0  0
 64 65  1  0  0  0  0
 64147  1  0  0  0  0
 64148  1  0  0  0  0
 65 66  1  0  0  0  0
 65 67  1  0  0  0  0
 65149  1  0  0  0  0
 66150  1  0  0  0  0
 66151  1  0  0  0  0
 66152  1  0  0  0  0
 67 68  2  0  0  0  0
 67153  1  0  0  0  0
 68 69  1  0  0  0  0
 68154  1  0  0  0  0
 69 70  2  0  0  0  0
 69155  1  0  0  0  0
 70 71  1  0  0  0  0
 70156  1  0  0  0  0
 71 72  2  0  0  0  0
 71157  1  0  0  0  0
 72 73  1  0  0  0  0
 73158  1  0  0  0  0
 73159  1  0  0  0  0
 73160  1  0  0  0  0
M  END
