REMARK  Name = 
REMARK  26 active torsions:
REMARK  status: ('A' for Active; 'I' for Inactive)
REMARK    1  A    between atoms: C_1  and  O_2
REMARK    2  A    between atoms: O_2  and  C_3
REMARK    3  A    between atoms: C_8  and  C_9
REMARK    4  A    between atoms: C_10  and  O_11
REMARK    5  A    between atoms: C_26  and  C_27
REMARK    6  A    between atoms: C_27  and  C_28
REMARK    7  A    between atoms: C_27  and  C_29
REMARK    8  A    between atoms: C_29  and  C_30
REMARK    9  A    between atoms: C_33  and  O_34
REMARK   10  A    between atoms: O_34  and  C_35
REMARK   11  A    between atoms: C_35  and  C_37
REMARK   12  A    between atoms: C_37  and  C_38
REMARK   13  A    between atoms: C_37  and  C_39
REMARK   14  A    between atoms: C_37  and  C_41
REMARK   15  A    between atoms: C_39  and  O_40
REMARK   16  A    between atoms: C_41  and  O_42
REMARK   17  A    between atoms: C_43  and  O_44
REMARK   18  A    between atoms: O_44  and  C_45
REMARK   19  A    between atoms: C_50  and  C_51
REMARK   20  A    between atoms: C_53  and  C_54
REMARK   21  A    between atoms: C_55  and  O_56
REMARK   22  A    between atoms: C_57  and  O_58
REMARK   23  A    between atoms: O_58  and  C_59
REMARK   24  A    between atoms: C_62  and  C_63
REMARK   25  A    between atoms: C_65  and  C_66
REMARK   26  A    between atoms: C_72  and  C_73
REMARK                            x       y       z     vdW  Elec       q    Type
REMARK                         _______ _______ _______ _____ _____    ______ ____
ROOT
ATOM      1  C   UNL     1       1.076   0.787  -2.146  0.00  0.00    +0.000 C 
ATOM      2  C   UNL     1       2.596   0.787  -2.146  0.00  0.00    +0.000 C 
ATOM      3  C   UNL     1       3.103  -0.570  -2.607  0.00  0.00    +0.000 C 
ATOM      4  C   UNL     1       4.242  -0.393  -1.601  0.00  0.00    +0.000 C 
ATOM      5  C   UNL     1       3.772  -0.710  -0.289  0.00  0.00    +0.000 C 
ATOM      6  C   UNL     1       3.314  -2.055  -0.142  0.00  0.00    +0.000 C 
ATOM      7  C   UNL     1       2.867  -2.285   1.292  0.00  0.00    +0.000 C 
ATOM      8  C   UNL     1       2.138  -2.300  -1.089  0.00  0.00    +0.000 C 
ATOM      9  O   UNL     1       2.581  -2.009  -2.527  0.00  0.00    +0.000 OA
ATOM     10  C   UNL     1       1.688  -3.747  -0.979  0.00  0.00    +0.000 C 
ATOM     11  O   UNL     1       2.282  -4.538  -0.182  0.00  0.00    +0.000 OA
ATOM     12  C   UNL     1       0.527  -4.249  -1.823  0.00  0.00    +0.000 C 
ATOM     13  O   UNL     1      -0.067  -3.458  -2.620  0.00  0.00    +0.000 OA
ATOM     14  N   UNL     1       0.092  -5.649  -1.716  0.00  0.00    +0.000 N 
ATOM     15  C   UNL     1      -0.599  -6.101  -3.005  0.00  0.00    +0.000 C 
ATOM     16  C   UNL     1      -0.135  -7.405  -3.361  0.00  0.00    +0.000 C 
ATOM     17  C   UNL     1      -0.414  -8.410  -2.384  0.00  0.00    +0.000 C 
ATOM     18  C   UNL     1       0.284  -8.051  -1.070  0.00  0.00    +0.000 C 
ATOM     19  C   UNL     1      -0.192  -6.670  -0.609  0.00  0.00    +0.000 C 
ATOM     20  C   UNL     1       0.545  -6.270   0.659  0.00  0.00    +0.000 C 
ATOM     21  O   UNL     1      -0.106  -6.035   1.725  0.00  0.00    +0.000 OA
ATOM     22  O   UNL     1       1.961  -6.158   0.652  0.00  0.00    +0.000 OA
ATOM     23  C   UNL     1       2.649  -5.785   1.836  0.00  0.00    +0.000 C 
ATOM     24  C   UNL     1       2.366  -6.803   2.929  0.00  0.00    +0.000 C 
ATOM     25  C   UNL     1       2.841  -8.175   2.479  0.00  0.00    +0.000 C 
ATOM     26  O   UNL     1       3.726  -8.793   3.149  0.00  0.00    +0.000 OA
ATOM     27  C   UNL     1       2.256  -8.808   1.227  0.00  0.00    +0.000 C 
ATOM     28  C   UNL     1       0.755  -8.976   1.398  0.00  0.00    +0.000 C 
ATOM     29  C   UNL     1       2.532  -7.913   0.030  0.00  0.00    +0.000 C 
ATOM     30  C   UNL     1       3.257  -8.385  -1.020  0.00  0.00    +0.000 C 
ATOM     31  C   UNL     1       3.533  -7.490  -2.217  0.00  0.00    +0.000 C 
ATOM     32  C   UNL     1       3.791  -9.808  -0.995  0.00  0.00    +0.000 C 
ATOM     33  C   UNL     1       2.631 -10.783  -0.883  0.00  0.00    +0.000 C 
ATOM     34  C   UNL     1       3.165 -12.206  -0.859  0.00  0.00    +0.000 C 
ATOM     35  O   UNL     1       2.934 -12.954   0.142  0.00  0.00    +0.000 OA
ATOM     36  C   UNL     1       3.975 -12.733  -2.031  0.00  0.00    +0.000 C 
ATOM     37  C   UNL     1       3.132 -12.679  -3.295  0.00  0.00    +0.000 C 
ATOM     38  C   UNL     1       5.218 -11.878  -2.214  0.00  0.00    +0.000 C 
ATOM     39  C   UNL     1       6.061 -11.932  -0.951  0.00  0.00    +0.000 C 
ATOM     40  C   UNL     1       6.472 -13.370  -0.677  0.00  0.00    +0.000 C 
ATOM     41  C   UNL     1       7.304 -11.076  -1.133  0.00  0.00    +0.000 C 
ATOM     42  C   UNL     1       7.535 -10.025  -0.301  0.00  0.00    +0.000 C 
ATOM     43  C   UNL     1       8.777  -9.169  -0.484  0.00  0.00    +0.000 C 
ATOM     44  C   UNL     1       9.008  -8.118   0.348  0.00  0.00    +0.000 C 
ATOM     45  C   UNL     1      10.251  -7.262   0.165  0.00  0.00    +0.000 C 
ATOM     46  C   UNL     1       0.570   2.144  -1.686  0.00  0.00    +0.000 C 
ATOM     47  C   UNL     1      -0.925   2.407  -1.596  0.00  0.00    +0.000 C 
ENDROOT
BRANCH   1  49
ATOM     48  C   UNL     1       1.076   0.042   0.050  0.00  0.00    +0.000 C 
ATOM     49  O   UNL     1       0.603  -0.220  -1.264  0.00  0.00    +0.000 OA
ENDBRANCH   1  49
BRANCH   8  50
ATOM     50  O   UNL     1       1.058  -1.446  -0.740  0.00  0.00    +0.000 OA
ATOM     51  H   UNL     1       1.351  -0.492  -0.812  0.00  0.00    +0.000 HD
ENDBRANCH   8  50
BRANCH  23  52
ATOM     52  C   UNL     1       2.175  -4.413   2.287  0.00  0.00    +0.000 C 
ATOM     53  C   UNL     1       0.681  -4.458   2.562  0.00  0.00    +0.000 C 
BRANCH  52  54
ATOM     54  C   UNL     1       2.912  -4.013   3.555  0.00  0.00    +0.000 C 
BRANCH  54  55
ATOM     55  C   UNL     1       4.406  -3.967   3.280  0.00  0.00    +0.000 C 
ATOM     56  C   UNL     1       4.829  -5.234   2.531  0.00  0.00    +0.000 C 
ATOM     57  C   UNL     1       4.163  -5.285   1.268  0.00  0.00    +0.000 C 
ATOM     58  C   UNL     1       4.469  -4.189   0.403  0.00  0.00    +0.000 C 
ATOM     59  C   UNL     1       4.031  -2.880   1.065  0.00  0.00    +0.000 C 
ATOM     60  C   UNL     1       4.734  -2.743   2.420  0.00  0.00    +0.000 C 
BRANCH  59  61
ATOM     61  O   UNL     1       2.624  -2.888   1.256  0.00  0.00    +0.000 OA
ATOM     62  C   UNL     1       2.266  -3.982   2.088  0.00  0.00    +0.000 C 
ENDBRANCH  59  61
BRANCH  58  63
ATOM     63  O   UNL     1       3.780  -4.350  -0.828  0.00  0.00    +0.000 OA
BRANCH  63  64
ATOM     64  C   UNL     1       2.361  -4.415  -0.845  0.00  0.00    +0.000 C 
ATOM     65  O   UNL     1       1.708  -4.328   0.242  0.00  0.00    +0.000 OA
BRANCH  64  66
ATOM     66  C   UNL     1       1.624  -4.588  -2.162  0.00  0.00    +0.000 C 
ATOM     67  C   UNL     1       1.949  -3.422  -3.082  0.00  0.00    +0.000 C 
BRANCH  66  68
ATOM     68  C   UNL     1       2.059  -5.888  -2.820  0.00  0.00    +0.000 C 
BRANCH  68  69
ATOM     69  O   UNL     1       1.755  -6.977  -1.961  0.00  0.00    +0.000 OA
ATOM     70  H   UNL     1       2.240  -6.863  -1.094  0.00  0.00    +0.000 HD
ENDBRANCH  68  69
ENDBRANCH  66  68
BRANCH  66  71
ATOM     71  C   UNL     1       0.127  -4.627  -1.904  0.00  0.00    +0.000 C 
BRANCH  71  72
ATOM     72  O   UNL     1      -0.177  -5.716  -1.045  0.00  0.00    +0.000 OA
ATOM     73  H   UNL     1       0.109  -6.571  -1.477  0.00  0.00    +0.000 HD
ENDBRANCH  71  72
ENDBRANCH  66  71
ENDBRANCH  64  66
ENDBRANCH  63  64
ENDBRANCH  58  63
ENDBRANCH  54  55
ENDBRANCH  52  54
ENDBRANCH  23  52
BRANCH  32  74
ATOM     74  O   UNL     1       4.656  -9.970   0.119  0.00  0.00    +0.000 OA
ATOM     75  H   UNL     1       5.419  -9.329   0.045  0.00  0.00    +0.000 HD
ENDBRANCH  32  74
BRANCH  33  76
ATOM     76  O   UNL     1       1.766 -10.621  -1.998  0.00  0.00    +0.000 OA
ATOM     77  C   UNL     1       1.267  -9.291  -2.020  0.00  0.00    +0.000 C 
ENDBRANCH  33  76
TORSDOF 15
