
 OpenBabel03132512093D

160163  0  0  0  0  0  0  0  0999 V2000
    1.0764    0.0415    0.0495 C   0  0  0  0  0  0  0  0  0  0  0  0
    0.6030   -0.2197   -1.2636 O   0  0  0  0  0  0  0  0  0  0  0  0
    1.0764    0.7868   -2.1463 C   0  0  0  0  0  0  0  0  0  0  0  0
    2.5964    0.7868   -2.1463 C   0  0  0  0  0  0  0  0  0  0  0  0
    3.1031   -0.5702   -2.6070 C   0  0  0  0  0  0  0  0  0  0  0  0
    4.2423   -0.3932   -1.6005 C   0  0  0  0  0  0  0  0  0  0  0  0
    3.7718   -0.7096   -0.2886 C   0  0  0  0  0  0  0  0  0  0  0  0
    3.3144   -2.0552   -0.1420 C   0  0  0  0  0  0  0  0  0  0  0  0
    2.8668   -2.2852    1.2923 C   0  0  0  0  0  0  0  0  0  0  0  0
    2.1376   -2.2995   -1.0895 C   0  0  0  0  0  0  0  0  0  0  0  0
    1.0580   -1.4457   -0.7404 O   0  0  0  0  0  0  0  0  0  0  0  0
    2.5809   -2.0085   -2.5267 O   0  0  0  0  0  0  0  0  0  0  0  0
    1.6877   -3.7472   -0.9792 C   0  0  0  0  0  0  0  0  0  0  0  0
    2.2820   -4.5383   -0.1816 O   0  0  0  0  0  0  0  0  0  0  0  0
    0.5270   -4.2487   -1.8228 C   0  0  0  0  0  0  0  0  0  0  0  0
   -0.0673   -3.4576   -2.6204 O   0  0  0  0  0  0  0  0  0  0  0  0
    0.0919   -5.6488   -1.7161 N   0  0  0  0  0  0  0  0  0  0  0  0
   -0.5988   -6.1010   -3.0048 C   0  0  0  0  0  0  0  0  0  0  0  0
   -0.1350   -7.4052   -3.3608 C   0  0  0  0  0  0  0  0  0  0  0  0
   -0.4139   -8.4099   -2.3840 C   0  0  0  0  0  0  0  0  0  0  0  0
    0.2842   -8.0511   -1.0702 C   0  0  0  0  0  0  0  0  0  0  0  0
   -0.1916   -6.6698   -0.6093 C   0  0  0  0  0  0  0  0  0  0  0  0
    0.5453   -6.2700    0.6586 C   0  0  0  0  0  0  0  0  0  0  0  0
   -0.1056   -6.0355    1.7247 O   0  0  0  0  0  0  0  0  0  0  0  0
    1.9608   -6.1584    0.6519 O   0  0  0  0  0  0  0  0  0  0  0  0
    2.6492   -5.7849    1.8364 C   0  0  0  0  0  0  0  0  0  0  0  0
    2.1748   -4.4128    2.2868 C   0  0  0  0  0  0  0  0  0  0  0  0
    0.6807   -4.4585    2.5621 C   0  0  0  0  0  0  0  0  0  0  0  0
    2.9117   -4.0130    3.5548 C   0  0  0  0  0  0  0  0  0  0  0  0
    4.4058   -3.9674    3.2795 C   0  0  0  0  0  0  0  0  0  0  0  0
    4.8289   -5.2337    2.5312 C   0  0  0  0  0  0  0  0  0  0  0  0
    4.1632   -5.2845    1.2676 C   0  0  0  0  0  0  0  0  0  0  0  0
    4.4687   -4.1886    0.4032 C   0  0  0  0  0  0  0  0  0  0  0  0
    3.7798   -4.3501   -0.8279 O   0  0  0  0  0  0  0  0  0  0  0  0
    2.3613   -4.4149   -0.8446 C   0  0  0  0  0  0  0  0  0  0  0  0
    1.7085   -4.3284    0.2424 O   0  0  0  0  0  0  0  0  0  0  0  0
    1.6239   -4.5877   -2.1624 C   0  0  0  0  0  0  0  0  0  0  0  0
    1.9490   -3.4216   -3.0817 C   0  0  0  0  0  0  0  0  0  0  0  0
    2.0586   -5.8875   -2.8197 C   0  0  0  0  0  0  0  0  0  0  0  0
    1.7549   -6.9768   -1.9609 O   0  0  0  0  0  0  0  0  0  0  0  0
    0.1266   -4.6268   -1.9038 C   0  0  0  0  0  0  0  0  0  0  0  0
   -0.1772   -5.7161   -1.0450 O   0  0  0  0  0  0  0  0  0  0  0  0
    4.0311   -2.8800    1.0653 C   0  0  0  0  0  0  0  0  0  0  0  0
    2.6240   -2.8884    1.2562 O   0  0  0  0  0  0  0  0  0  0  0  0
    2.2657   -3.9820    2.0881 C   0  0  0  0  0  0  0  0  0  0  0  0
    4.7341   -2.7425    2.4195 C   0  0  0  0  0  0  0  0  0  0  0  0
    2.3662   -6.8028    2.9293 C   0  0  0  0  0  0  0  0  0  0  0  0
    2.8406   -8.1748    2.4788 C   0  0  0  0  0  0  0  0  0  0  0  0
    3.7262   -8.7926    3.1490 O   0  0  0  0  0  0  0  0  0  0  0  0
    2.2557   -8.8080    1.2269 C   0  0  0  0  0  0  0  0  0  0  0  0
    0.7548   -8.9763    1.3981 C   0  0  0  0  0  0  0  0  0  0  0  0
    2.5319   -7.9128    0.0299 C   0  0  0  0  0  0  0  0  0  0  0  0
    3.2572   -8.3850   -1.0196 C   0  0  0  0  0  0  0  0  0  0  0  0
    3.5334   -7.4898   -2.2166 C   0  0  0  0  0  0  0  0  0  0  0  0
    3.7914   -9.8078   -0.9954 C   0  0  0  0  0  0  0  0  0  0  0  0
    4.6557   -9.9700    0.1195 O   0  0  0  0  0  0  0  0  0  0  0  0
    2.6308  -10.7829   -0.8828 C   0  0  0  0  0  0  0  0  0  0  0  0
    1.7665  -10.6207   -1.9977 O   0  0  0  0  0  0  0  0  0  0  0  0
    1.2674   -9.2915   -2.0203 C   0  0  0  0  0  0  0  0  0  0  0  0
    3.1650  -12.2057   -0.8586 C   0  0  0  0  0  0  0  0  0  0  0  0
    2.9340  -12.9542    0.1422 O   0  0  0  0  0  0  0  0  0  0  0  0
    3.9754  -12.7334   -2.0313 C   0  0  0  0  0  0  0  0  0  0  0  0
    3.1324  -12.6791   -3.2949 C   0  0  0  0  0  0  0  0  0  0  0  0
    5.2182  -11.8776   -2.2142 C   0  0  0  0  0  0  0  0  0  0  0  0
    6.0612  -11.9319   -0.9505 C   0  0  0  0  0  0  0  0  0  0  0  0
    6.4718  -13.3695   -0.6767 C   0  0  0  0  0  0  0  0  0  0  0  0
    7.3040  -11.0761   -1.1334 C   0  0  0  0  0  0  0  0  0  0  0  0
    7.5345  -10.0249   -0.3012 C   0  0  0  0  0  0  0  0  0  0  0  0
    8.7774   -9.1691   -0.4841 C   0  0  0  0  0  0  0  0  0  0  0  0
    9.0079   -8.1179    0.3480 C   0  0  0  0  0  0  0  0  0  0  0  0
   10.2507   -7.2621    0.1651 C   0  0  0  0  0  0  0  0  0  0  0  0
    0.5697    2.1438   -1.6857 C   0  0  0  0  0  0  0  0  0  0  0  0
   -0.9247    2.4068   -1.5964 C   0  0  0  0  0  0  0  0  0  0  0  0
    0.7197   -0.7170    0.7146 H   0  0  0  0  0  0  0  0  0  0  0  0
    0.7197    0.9967    0.3737 H   0  0  0  0  0  0  0  0  0  0  0  0
    2.1464    0.0415    0.0495 H   0  0  0  0  0  0  0  0  0  0  0  0
    0.7197    0.5900   -3.1358 H   0  0  0  0  0  0  0  0  0  0  0  0
    2.9531    1.5453   -2.8115 H   0  0  0  0  0  0  0  0  0  0  0  0
    2.9530    0.9836   -1.1569 H   0  0  0  0  0  0  0  0  0  0  0  0
    3.0292   -0.6436   -3.6719 H   0  0  0  0  0  0  0  0  0  0  0  0
    5.0500   -1.0464   -1.8571 H   0  0  0  0  0  0  0  0  0  0  0  0
    4.5833    0.6208   -1.6223 H   0  0  0  0  0  0  0  0  0  0  0  0
    2.9305   -0.0755   -0.1011 H   0  0  0  0  0  0  0  0  0  0  0  0
    4.5721   -0.5493    0.4033 H   0  0  0  0  0  0  0  0  0  0  0  0
    4.1099   -2.7302   -0.3797 H   0  0  0  0  0  0  0  0  0  0  0  0
    2.5243   -3.2929    1.4017 H   0  0  0  0  0  0  0  0  0  0  0  0
    3.6897   -2.1142    1.9545 H   0  0  0  0  0  0  0  0  0  0  0  0
    2.0713   -1.6103    1.5302 H   0  0  0  0  0  0  0  0  0  0  0  0
    1.3505   -0.4921   -0.8119 H   0  0  0  0  0  0  0  0  0  0  0  0
   -1.6574   -6.1281   -2.8518 H   0  0  0  0  0  0  0  0  0  0  0  0
   -0.3700   -5.4137   -3.7923 H   0  0  0  0  0  0  0  0  0  0  0  0
    0.9300   -7.3422   -3.4434 H   0  0  0  0  0  0  0  0  0  0  0  0
   -0.6045   -7.6897   -4.2792 H   0  0  0  0  0  0  0  0  0  0  0  0
   -0.0548   -9.3558   -2.7323 H   0  0  0  0  0  0  0  0  0  0  0  0
   -1.4702   -8.4672   -2.2227 H   0  0  0  0  0  0  0  0  0  0  0  0
    1.3438   -8.0360   -1.2180 H   0  0  0  0  0  0  0  0  0  0  0  0
    0.0422   -8.7801   -0.3253 H   0  0  0  0  0  0  0  0  0  0  0  0
   -1.2425   -6.7004   -0.4103 H   0  0  0  0  0  0  0  0  0  0  0  0
    3.7010   -5.7527    1.6426 H   0  0  0  0  0  0  0  0  0  0  0  0
    2.3740   -3.6963    1.5176 H   0  0  0  0  0  0  0  0  0  0  0  0
    0.4815   -5.1750    3.3314 H   0  0  0  0  0  0  0  0  0  0  0  0
    0.3468   -3.4926    2.8792 H   0  0  0  0  0  0  0  0  0  0  0  0
    0.1620   -4.7399    1.6696 H   0  0  0  0  0  0  0  0  0  0  0  0
    2.5778   -3.0472    3.8718 H   0  0  0  0  0  0  0  0  0  0  0  0
    2.7125   -4.7295    4.3240 H   0  0  0  0  0  0  0  0  0  0  0  0
    4.9324   -3.9053    4.2089 H   0  0  0  0  0  0  0  0  0  0  0  0
    5.8876   -5.2200    2.3767 H   0  0  0  0  0  0  0  0  0  0  0  0
    4.5641   -6.0946    3.1088 H   0  0  0  0  0  0  0  0  0  0  0  0
    3.1136   -5.2352    1.4694 H   0  0  0  0  0  0  0  0  0  0  0  0
    4.4469   -6.1907    0.7745 H   0  0  0  0  0  0  0  0  0  0  0  0
    5.5227   -4.1612    0.2208 H   0  0  0  0  0  0  0  0  0  0  0  0
    3.0030   -3.3941   -3.2637 H   0  0  0  0  0  0  0  0  0  0  0  0
    1.4299   -3.5433   -4.0093 H   0  0  0  0  0  0  0  0  0  0  0  0
    1.6430   -2.5067   -2.6190 H   0  0  0  0  0  0  0  0  0  0  0  0
    1.5395   -6.0091   -3.7473 H   0  0  0  0  0  0  0  0  0  0  0  0
    3.1126   -5.8600   -3.0017 H   0  0  0  0  0  0  0  0  0  0  0  0
    2.2401   -6.8631   -1.0939 H   0  0  0  0  0  0  0  0  0  0  0  0
   -0.1795   -3.7118   -1.4411 H   0  0  0  0  0  0  0  0  0  0  0  0
   -0.3926   -4.7484   -2.8315 H   0  0  0  0  0  0  0  0  0  0  0  0
    0.1088   -6.5712   -1.4774 H   0  0  0  0  0  0  0  0  0  0  0  0
    4.2973   -2.0549    0.4383 H   0  0  0  0  0  0  0  0  0  0  0  0
    2.5681   -4.8974    1.6238 H   0  0  0  0  0  0  0  0  0  0  0  0
    2.7535   -3.8844    3.0354 H   0  0  0  0  0  0  0  0  0  0  0  0
    1.2054   -3.9883    2.2319 H   0  0  0  0  0  0  0  0  0  0  0  0
    4.3977   -1.8544    2.9125 H   0  0  0  0  0  0  0  0  0  0  0  0
    5.7919   -2.6824    2.2699 H   0  0  0  0  0  0  0  0  0  0  0  0
    2.8849   -6.5213    3.8218 H   0  0  0  0  0  0  0  0  0  0  0  0
    1.3144   -6.8349    3.1230 H   0  0  0  0  0  0  0  0  0  0  0  0
    2.7061   -9.7654    1.0677 H   0  0  0  0  0  0  0  0  0  0  0  0
    0.3044   -8.0188    1.5573 H   0  0  0  0  0  0  0  0  0  0  0  0
    0.3430   -9.4220    0.5168 H   0  0  0  0  0  0  0  0  0  0  0  0
    0.5603   -9.6065    2.2407 H   0  0  0  0  0  0  0  0  0  0  0  0
    2.1559   -6.9112    0.0129 H   0  0  0  0  0  0  0  0  0  0  0  0
    4.5900   -7.3713   -2.3371 H   0  0  0  0  0  0  0  0  0  0  0  0
    3.1217   -7.9355   -3.0979 H   0  0  0  0  0  0  0  0  0  0  0  0
    3.0830   -6.5323   -2.0574 H   0  0  0  0  0  0  0  0  0  0  0  0
    4.3331  -10.0008   -1.8977 H   0  0  0  0  0  0  0  0  0  0  0  0
    5.4193   -9.3285    0.0454 H   0  0  0  0  0  0  0  0  0  0  0  0
    2.0891  -10.5899    0.0195 H   0  0  0  0  0  0  0  0  0  0  0  0
    0.7257   -9.0985   -1.1180 H   0  0  0  0  0  0  0  0  0  0  0  0
    2.0844   -8.6051   -2.0996 H   0  0  0  0  0  0  0  0  0  0  0  0
    0.6161   -9.1693   -2.8604 H   0  0  0  0  0  0  0  0  0  0  0  0
    4.2644  -13.7454   -1.8385 H   0  0  0  0  0  0  0  0  0  0  0  0
    2.8434  -11.6670   -3.4877 H   0  0  0  0  0  0  0  0  0  0  0  0
    3.7029  -13.0505   -4.1205 H   0  0  0  0  0  0  0  0  0  0  0  0
    2.2575  -13.2815   -3.1662 H   0  0  0  0  0  0  0  0  0  0  0  0
    5.7887  -12.2490   -3.0397 H   0  0  0  0  0  0  0  0  0  0  0  0
    4.9292  -10.8656   -2.4069 H   0  0  0  0  0  0  0  0  0  0  0  0
    5.4907  -11.5605   -0.1250 H   0  0  0  0  0  0  0  0  0  0  0  0
    7.0422  -13.7409   -1.5022 H   0  0  0  0  0  0  0  0  0  0  0  0
    7.0652  -13.4077    0.2129 H   0  0  0  0  0  0  0  0  0  0  0  0
    5.5969  -13.9719   -0.5479 H   0  0  0  0  0  0  0  0  0  0  0  0
    7.9976  -11.3005   -1.9166 H   0  0  0  0  0  0  0  0  0  0  0  0
    6.8410   -9.8005    0.4820 H   0  0  0  0  0  0  0  0  0  0  0  0
    9.4709   -9.3935   -1.2674 H   0  0  0  0  0  0  0  0  0  0  0  0
    8.3143   -7.8935    1.1313 H   0  0  0  0  0  0  0  0  0  0  0  0
   10.9443   -7.4865   -0.6181 H   0  0  0  0  0  0  0  0  0  0  0  0
   -1.3675    2.2798   -2.5622 H   0  0  0  0  0  0  0  0  0  0  0  0
   -1.3675    1.7182   -0.9076 H   0  0  0  0  0  0  0  0  0  0  0  0
   -1.0910    3.4077   -1.2567 H   0  0  0  0  0  0  0  0  0  0  0  0
  1  2  1  0  0  0  0
  1 74  1  0  0  0  0
  1 75  1  0  0  0  0
  1 76  1  0  0  0  0
  2  3  1  0  0  0  0
  3  4  1  0  0  0  0
  3 72  1  0  0  0  0
  3 77  1  0  0  0  0
  4  5  1  0  0  0  0
  4 78  1  0  0  0  0
  4 79  1  0  0  0  0
  5  6  1  0  0  0  0
  5 12  1  0  0  0  0
  5 80  1  0  0  0  0
  6  7  1  0  0  0  0
  6 81  1  0  0  0  0
  6 82  1  0  0  0  0
  7  8  1  0  0  0  0
  7 83  1  0  0  0  0
  7 84  1  0  0  0  0
  8  9  1  0  0  0  0
  8 10  1  0  0  0  0
  8 85  1  0  0  0  0
  9 86  1  0  0  0  0
  9 87  1  0  0  0  0
  9 88  1  0  0  0  0
 10 11  1  0  0  0  0
 10 12  1  0  0  0  0
 10 13  1  0  0  0  0
 11 89  1  0  0  0  0
 13 14  2  0  0  0  0
 13 15  1  0  0  0  0
 15 16  2  0  0  0  0
 15 17  1  0  0  0  0
 17 18  1  0  0  0  0
 17 22  1  0  0  0  0
 18 19  1  0  0  0  0
 18 90  1  0  0  0  0
 18 91  1  0  0  0  0
 19 20  1  0  0  0  0
 19 92  1  0  0  0  0
 19 93  1  0  0  0  0
 20 21  1  0  0  0  0
 20 94  1  0  0  0  0
 20 95  1  0  0  0  0
 21 22  1  0  0  0  0
 21 96  1  0  0  0  0
 21 97  1  0  0  0  0
 22 23  1  0  0  0  0
 22 98  1  0  0  0  0
 23 24  2  0  0  0  0
 23 25  1  0  0  0  0
 25 26  1  0  0  0  0
 26 27  1  0  0  0  0
 26 47  1  0  0  0  0
 26 99  1  0  0  0  0
 27 28  1  0  0  0  0
 27 29  1  0  0  0  0
 27100  1  0  0  0  0
 28101  1  0  0  0  0
 28102  1  0  0  0  0
 28103  1  0  0  0  0
 29 30  1  0  0  0  0
 29104  1  0  0  0  0
 29105  1  0  0  0  0
 30 31  1  0  0  0  0
 30 46  1  0  0  0  0
 30106  1  0  0  0  0
 31 32  1  0  0  0  0
 31107  1  0  0  0  0
 31108  1  0  0  0  0
 32 33  1  0  0  0  0
 32109  1  0  0  0  0
 32110  1  0  0  0  0
 33 34  1  0  0  0  0
 33 43  1  0  0  0  0
 33111  1  0  0  0  0
 34 35  1  0  0  0  0
 35 36  2  0  0  0  0
 35 37  1  0  0  0  0
 37 38  1  0  0  0  0
 37 39  1  0  0  0  0
 37 41  1  0  0  0  0
 38112  1  0  0  0  0
 38113  1  0  0  0  0
 38114  1  0  0  0  0
 39 40  1  0  0  0  0
 39115  1  0  0  0  0
 39116  1  0  0  0  0
 40117  1  0  0  0  0
 41 42  1  0  0  0  0
 41118  1  0  0  0  0
 41119  1  0  0  0  0
 42120  1  0  0  0  0
 43 44  1  0  0  0  0
 43 46  1  0  0  0  0
 43121  1  0  0  0  0
 44 45  1  0  0  0  0
 45122  1  0  0  0  0
 45123  1  0  0  0  0
 45124  1  0  0  0  0
 46125  1  0  0  0  0
 46126  1  0  0  0  0
 47 48  1  0  0  0  0
 47127  1  0  0  0  0
 47128  1  0  0  0  0
 48 49  2  0  0  0  0
 48 50  1  0  0  0  0
 50 51  1  0  0  0  0
 50 52  1  0  0  0  0
 50129  1  0  0  0  0
 51130  1  0  0  0  0
 51131  1  0  0  0  0
 51132  1  0  0  0  0
 52 53  2  0  0  0  0
 52133  1  0  0  0  0
 53 54  1  0  0  0  0
 53 55  1  0  0  0  0
 54134  1  0  0  0  0
 54135  1  0  0  0  0
 54136  1  0  0  0  0
 55 56  1  0  0  0  0
 55 57  1  0  0  0  0
 55137  1  0  0  0  0
 56138  1  0  0  0  0
 57 58  1  0  0  0  0
 57 60  1  0  0  0  0
 57139  1  0  0  0  0
 58 59  1  0  0  0  0
 59140  1  0  0  0  0
 59141  1  0  0  0  0
 59142  1  0  0  0  0
 60 61  2  0  0  0  0
 60 62  1  0  0  0  0
 62 63  1  0  0  0  0
 62 64  1  0  0  0  0
 62143  1  0  0  0  0
 63144  1  0  0  0  0
 63145  1  0  0  0  0
 63146  1  0  0  0  0
 64 65  1  0  0  0  0
 64147  1  0  0  0  0
 64148  1  0  0  0  0
 65 66  1  0  0  0  0
 65 67  1  0  0  0  0
 65149  1  0  0  0  0
 66150  1  0  0  0  0
 66151  1  0  0  0  0
 66152  1  0  0  0  0
 67 68  2  0  0  0  0
 67153  1  0  0  0  0
 68 69  1  0  0  0  0
 68154  1  0  0  0  0
 69 70  2  0  0  0  0
 69155  1  0  0  0  0
 70 71  1  0  0  0  0
 70156  1  0  0  0  0
 71 72  2  0  0  0  0
 71157  1  0  0  0  0
 72 73  1  0  0  0  0
 73158  1  0  0  0  0
 73159  1  0  0  0  0
 73160  1  0  0  0  0
M  END
