
 OpenBabel03132512093D

 49 52  0  0  0  0  0  0  0  0999 V2000
    0.9309   -0.0679    0.0249 C   0  0  0  0  0  0  0  0  0  0  0  0
    0.4242   -1.3485   -0.6184 C   0  0  0  0  0  0  0  0  0  0  0  0
   -1.0136   -1.3373   -0.8283 C   0  0  0  0  0  0  0  0  0  0  0  0
   -1.7069   -1.7979    0.4277 C   0  0  0  0  0  0  0  0  0  0  0  0
   -2.3259   -3.1717    0.4865 C   0  0  0  0  0  0  0  0  0  0  0  0
   -3.4663   -3.4833    0.0200 O   0  0  0  0  0  0  0  0  0  0  0  0
   -1.3836   -4.1175    1.1839 C   0  0  0  0  0  0  0  0  0  0  0  0
   -1.1938   -5.3233    0.7078 C   0  0  0  0  0  0  0  0  0  0  0  0
   -0.2511   -6.2700    1.4053 C   0  0  0  0  0  0  0  0  0  0  0  0
    0.8726   -6.6700    0.4460 C   0  0  0  0  0  0  0  0  0  0  0  0
    2.0028   -5.6425    0.5295 C   0  0  0  0  0  0  0  0  0  0  0  0
    1.1841   -1.7886   -1.6333 C   0  0  0  0  0  0  0  0  0  0  0  0
    2.6833   -1.8308   -1.4883 C   0  0  0  0  0  0  0  0  0  0  0  0
    3.2072   -3.1753   -1.9974 C   0  0  0  0  0  0  0  0  0  0  0  0
    3.4473   -4.1079   -0.8115 C   0  0  0  0  0  0  0  0  0  0  0  0
    4.8737   -4.6310   -0.8583 C   0  0  0  0  0  0  0  0  0  0  0  0
    3.2303   -3.3451    0.4852 C   0  0  0  0  0  0  0  0  0  0  0  0
    1.8980   -2.8558    0.5293 O   0  0  0  0  0  0  0  0  0  0  0  0
    3.4684   -4.2735    1.6650 C   0  0  0  0  0  0  0  0  0  0  0  0
    3.1638   -6.4821   -1.5071 C   0  0  0  0  0  0  0  0  0  0  0  0
    2.4700   -5.2828   -0.8820 C   0  0  0  0  0  0  0  0  0  0  0  0
    0.5742   -0.0093    1.0320 H   0  0  0  0  0  0  0  0  0  0  0  0
    0.5742    0.7750   -0.5294 H   0  0  0  0  0  0  0  0  0  0  0  0
    2.0009   -0.0679    0.0249 H   0  0  0  0  0  0  0  0  0  0  0  0
   -1.2619   -1.9949   -1.6350 H   0  0  0  0  0  0  0  0  0  0  0  0
   -1.3316   -0.3441   -1.0677 H   0  0  0  0  0  0  0  0  0  0  0  0
   -2.5514   -1.1444    0.4962 H   0  0  0  0  0  0  0  0  0  0  0  0
   -0.9836   -1.7510    1.2147 H   0  0  0  0  0  0  0  0  0  0  0  0
   -0.8691   -3.8045    2.0683 H   0  0  0  0  0  0  0  0  0  0  0  0
   -0.7860   -7.1443    1.7124 H   0  0  0  0  0  0  0  0  0  0  0  0
    0.1677   -5.7882    2.2641 H   0  0  0  0  0  0  0  0  0  0  0  0
    0.4934   -6.7032   -0.5540 H   0  0  0  0  0  0  0  0  0  0  0  0
    1.2468   -7.6350    0.7173 H   0  0  0  0  0  0  0  0  0  0  0  0
    2.4049   -5.9175    1.4822 H   0  0  0  0  0  0  0  0  0  0  0  0
    0.7676   -1.4085   -2.5426 H   0  0  0  0  0  0  0  0  0  0  0  0
    2.9454   -1.7129   -0.4577 H   0  0  0  0  0  0  0  0  0  0  0  0
    3.1193   -1.0385   -2.0601 H   0  0  0  0  0  0  0  0  0  0  0  0
    2.4871   -3.6132   -2.6566 H   0  0  0  0  0  0  0  0  0  0  0  0
    4.1261   -3.0240   -2.5243 H   0  0  0  0  0  0  0  0  0  0  0  0
    5.5568   -3.8090   -0.8092 H   0  0  0  0  0  0  0  0  0  0  0  0
    5.0414   -5.2843   -0.0277 H   0  0  0  0  0  0  0  0  0  0  0  0
    5.0268   -5.1680   -1.7710 H   0  0  0  0  0  0  0  0  0  0  0  0
    3.9138   -2.5234    0.5344 H   0  0  0  0  0  0  0  0  0  0  0  0
    1.7413   -2.2451   -0.2469 H   0  0  0  0  0  0  0  0  0  0  0  0
    3.3156   -3.7366    2.5778 H   0  0  0  0  0  0  0  0  0  0  0  0
    2.7848   -5.0952    1.6159 H   0  0  0  0  0  0  0  0  0  0  0  0
    2.4803   -7.3039   -1.5563 H   0  0  0  0  0  0  0  0  0  0  0  0
    3.4906   -6.2305   -2.4944 H   0  0  0  0  0  0  0  0  0  0  0  0
    1.6250   -5.0088   -1.4785 H   0  0  0  0  0  0  0  0  0  0  0  0
  1  2  1  0  0  0  0
  1 22  1  0  0  0  0
  1 23  1  0  0  0  0
  1 24  1  0  0  0  0
  2  3  1  0  0  0  0
  2  8  1  0  0  0  0
  2 12  1  0  0  0  0
  3  4  1  0  0  0  0
  3 25  1  0  0  0  0
  3 26  1  0  0  0  0
  4  5  1  0  0  0  0
  4 27  1  0  0  0  0
  4 28  1  0  0  0  0
  5  6  2  0  0  0  0
  5  7  1  0  0  0  0
  7  8  2  0  0  0  0
  7 29  1  0  0  0  0
  8  9  1  0  0  0  0
  9 10  1  0  0  0  0
  9 30  1  0  0  0  0
  9 31  1  0  0  0  0
 10 11  1  0  0  0  0
 10 32  1  0  0  0  0
 10 33  1  0  0  0  0
 11 12  1  0  0  0  0
 11 21  1  0  0  0  0
 11 34  1  0  0  0  0
 12 13  1  0  0  0  0
 12 35  1  0  0  0  0
 13 14  1  0  0  0  0
 13 36  1  0  0  0  0
 13 37  1  0  0  0  0
 14 15  1  0  0  0  0
 14 38  1  0  0  0  0
 14 39  1  0  0  0  0
 15 16  1  0  0  0  0
 15 17  1  0  0  0  0
 15 21  1  0  0  0  0
 16 40  1  0  0  0  0
 16 41  1  0  0  0  0
 16 42  1  0  0  0  0
 17 18  1  0  0  0  0
 17 19  1  0  0  0  0
 17 43  1  0  0  0  0
 18 44  1  0  0  0  0
 19 20  1  0  0  0  0
 19 45  1  0  0  0  0
 19 46  1  0  0  0  0
 20 21  1  0  0  0  0
 20 47  1  0  0  0  0
 20 48  1  0  0  0  0
 21 49  1  0  0  0  0
M  END
