REMARK  Name = 
REMARK  3 active torsions:
REMARK  status: ('A' for Active; 'I' for Inactive)
REMARK    1  A    between atoms: C_1  and  C_2
REMARK    2  A    between atoms: C_15  and  C_16
REMARK    3  A    between atoms: C_17  and  O_18
REMARK                            x       y       z     vdW  Elec       q    Type
REMARK                         _______ _______ _______ _____ _____    ______ ____
ROOT
ATOM      1  C   UNL     1       0.931  -0.068   0.025  0.00  0.00    +0.000 C 
ATOM      2  C   UNL     1       0.424  -1.349  -0.618  0.00  0.00    +0.000 C 
ATOM      3  C   UNL     1      -1.014  -1.337  -0.828  0.00  0.00    +0.000 C 
ATOM      4  C   UNL     1      -1.707  -1.798   0.428  0.00  0.00    +0.000 C 
ATOM      5  C   UNL     1      -2.326  -3.172   0.486  0.00  0.00    +0.000 C 
ATOM      6  O   UNL     1      -3.466  -3.483   0.020  0.00  0.00    +0.000 OA
ATOM      7  C   UNL     1      -1.384  -4.117   1.184  0.00  0.00    +0.000 C 
ATOM      8  C   UNL     1      -1.194  -5.323   0.708  0.00  0.00    +0.000 C 
ATOM      9  C   UNL     1      -0.251  -6.270   1.405  0.00  0.00    +0.000 C 
ATOM     10  C   UNL     1       0.873  -6.670   0.446  0.00  0.00    +0.000 C 
ATOM     11  C   UNL     1       2.003  -5.643   0.529  0.00  0.00    +0.000 C 
ATOM     12  C   UNL     1       1.184  -1.789  -1.633  0.00  0.00    +0.000 C 
ATOM     13  C   UNL     1       2.683  -1.831  -1.488  0.00  0.00    +0.000 C 
ATOM     14  C   UNL     1       3.207  -3.175  -1.997  0.00  0.00    +0.000 C 
ATOM     15  C   UNL     1       3.447  -4.108  -0.811  0.00  0.00    +0.000 C 
ATOM     16  C   UNL     1       4.874  -4.631  -0.858  0.00  0.00    +0.000 C 
ATOM     17  C   UNL     1       3.230  -3.345   0.485  0.00  0.00    +0.000 C 
ATOM     18  C   UNL     1       3.468  -4.274   1.665  0.00  0.00    +0.000 C 
ATOM     19  C   UNL     1       3.164  -6.482  -1.507  0.00  0.00    +0.000 C 
ATOM     20  C   UNL     1       2.470  -5.283  -0.882  0.00  0.00    +0.000 C 
ENDROOT
BRANCH  17  21
ATOM     21  O   UNL     1       1.898  -2.856   0.529  0.00  0.00    +0.000 OA
ATOM     22  H   UNL     1       1.741  -2.245  -0.247  0.00  0.00    +0.000 HD
ENDBRANCH  17  21
TORSDOF 1
