REMARK  Name = 
REMARK  3 active torsions:
REMARK  status: ('A' for Active; 'I' for Inactive)
REMARK    1  A    between atoms: C_1  and  C_2
REMARK    2  A    between atoms: C_15  and  C_16
REMARK    3  A    between atoms: C_17  and  O_18
REMARK                            x       y       z     vdW  Elec       q    Type
REMARK                         _______ _______ _______ _____ _____    ______ ____
ROOT
ATOM      1  C   UNL     1       0.999  -0.100  -0.002  0.00  0.00    +0.000 C 
ATOM      2  C   UNL     1       0.492   1.332   0.057  0.00  0.00    +0.000 C 
ATOM      3  C   UNL     1      -0.063   1.967  -1.126  0.00  0.00    +0.000 C 
ATOM      4  C   UNL     1       0.640   3.278  -1.367  0.00  0.00    +0.000 C 
ATOM      5  C   UNL     1      -0.065   4.577  -1.068  0.00  0.00    +0.000 C 
ATOM      6  O   UNL     1      -0.902   5.150  -1.833  0.00  0.00    +0.000 OA
ATOM      7  C   UNL     1       0.377   5.090   0.277  0.00  0.00    +0.000 C 
ATOM      8  C   UNL     1      -0.504   5.583   1.112  0.00  0.00    +0.000 C 
ATOM      9  C   UNL     1      -0.063   6.096   2.459  0.00  0.00    +0.000 C 
ATOM     10  C   UNL     1      -0.767   5.304   3.563  0.00  0.00    +0.000 C 
ATOM     11  C   UNL     1       0.046   4.049   3.887  0.00  0.00    +0.000 C 
ATOM     12  C   UNL     1      -0.373   0.729   0.887  0.00  0.00    +0.000 C 
ATOM     13  C   UNL     1       0.128   0.051   2.135  0.00  0.00    +0.000 C 
ATOM     14  C   UNL     1      -0.753   0.449   3.321  0.00  0.00    +0.000 C 
ATOM     15  C   UNL     1      -0.069   1.564   4.110  0.00  0.00    +0.000 C 
ATOM     16  C   UNL     1       0.040   1.159   5.571  0.00  0.00    +0.000 C 
ATOM     17  C   UNL     1       1.322   1.804   3.546  0.00  0.00    +0.000 C 
ATOM     18  C   UNL     1       2.002   2.914   4.330  0.00  0.00    +0.000 C 
ATOM     19  C   UNL     1      -1.768   2.998   5.231  0.00  0.00    +0.000 C 
ATOM     20  C   UNL     1      -0.894   2.847   3.996  0.00  0.00    +0.000 C 
ENDROOT
BRANCH  17  21
ATOM     21  O   UNL     1       1.220   2.182   2.181  0.00  0.00    +0.000 OA
ATOM     22  H   UNL     1       0.773   1.452   1.665  0.00  0.00    +0.000 HD
ENDBRANCH  17  21
TORSDOF 1
