REMARK  Name = 
REMARK  15 active torsions:
REMARK  status: ('A' for Active; 'I' for Inactive)
REMARK    1  A    between atoms: C_2  and  C_3
REMARK    2  A    between atoms: C_2  and  O_12
REMARK    3  A    between atoms: C_4  and  C_5
REMARK    4  A    between atoms: C_8  and  O_9
REMARK    5  A    between atoms: O_12  and  C_13
REMARK    6  A    between atoms: C_13  and  C_14
REMARK    7  A    between atoms: C_16  and  O_17
REMARK    8  A    between atoms: O_17  and  C_18
REMARK    9  A    between atoms: C_19  and  C_20
REMARK   10  A    between atoms: C_23  and  O_24
REMARK   11  A    between atoms: C_30  and  O_31
REMARK   12  A    between atoms: C_33  and  O_34
REMARK   13  A    between atoms: C_38  and  O_39
REMARK   14  A    between atoms: C_40  and  O_41
REMARK   15  A    between atoms: C_42  and  O_43
REMARK                            x       y       z     vdW  Elec       q    Type
REMARK                         _______ _______ _______ _____ _____    ______ ____
ROOT
ATOM      1  C   UNL     1       4.870  -0.825   1.159  0.00  0.00    +0.000 C 
ATOM      2  O   UNL     1       5.126  -2.205   0.548  0.00  0.00    +0.000 OA
ATOM      3  C   UNL     1       4.706  -2.206  -0.818  0.00  0.00    +0.000 C 
ATOM      4  C   UNL     1       5.402  -1.269  -1.642  0.00  0.00    +0.000 C 
ATOM      5  C   UNL     1       5.157   0.149  -1.120  0.00  0.00    +0.000 C 
ATOM      6  C   UNL     1       5.616   0.233   0.340  0.00  0.00    +0.000 C 
ENDROOT
BRANCH   4   7
ATOM      7  O   UNL     1       4.929  -1.370  -2.977  0.00  0.00    +0.000 OA
ATOM      8  H   UNL     1       3.949  -1.171  -3.000  0.00  0.00    +0.000 HD
ENDBRANCH   4   7
BRANCH   5   9
ATOM      9  O   UNL     1       3.774   0.457  -1.204  0.00  0.00    +0.000 OA
ATOM     10  H   UNL     1       3.252  -0.195  -0.653  0.00  0.00    +0.000 HD
ENDBRANCH   5   9
BRANCH   6  11
ATOM     11  O   UNL     1       5.335   1.525   0.857  0.00  0.00    +0.000 OA
ATOM     12  H   UNL     1       4.351   1.698   0.806  0.00  0.00    +0.000 HD
ENDBRANCH   6  11
BRANCH   1  13
ATOM     13  C   UNL     1       4.363   0.604   1.059  0.00  0.00    +0.000 C 
BRANCH  13  14
ATOM     14  O   UNL     1       2.943   0.604   1.059  0.00  0.00    +0.000 OA
BRANCH  14  16
ATOM     15  O   UNL     1       0.963  -0.084   0.039  0.00  0.00    +0.000 OA
ATOM     16  C   UNL     1       2.233  -0.084   0.039  0.00  0.00    +0.000 C 
BRANCH  16  17
ATOM     17  C   UNL     1       2.993  -0.821  -1.052  0.00  0.00    +0.000 C 
ATOM     18  C   UNL     1       4.354  -0.821  -1.052  0.00  0.00    +0.000 C 
BRANCH  18  19
ATOM     19  C   UNL     1       5.114  -1.557  -2.143  0.00  0.00    +0.000 A 
ATOM     20  C   UNL     1       4.681  -1.389  -3.440  0.00  0.00    +0.000 A 
ATOM     21  C   UNL     1       5.401  -1.921  -4.515  0.00  0.00    +0.000 A 
ATOM     22  C   UNL     1       6.592  -2.617  -4.222  0.00  0.00    +0.000 A 
ATOM     23  C   UNL     1       6.997  -2.804  -2.922  0.00  0.00    +0.000 A 
ATOM     24  C   UNL     1       6.262  -2.265  -1.884  0.00  0.00    +0.000 A 
BRANCH  22  25
ATOM     25  O   UNL     1       7.365  -3.145  -5.199  0.00  0.00    +0.000 OA
ATOM     26  H   UNL     1       7.105  -3.031  -6.158  0.00  0.00    +0.000 HD
ENDBRANCH  22  25
ENDBRANCH  18  19
ENDBRANCH  16  17
ENDBRANCH  14  16
ENDBRANCH  13  14
ENDBRANCH   1  13
BRANCH   3  27
ATOM     27  O   UNL     1       3.338  -1.823  -0.826  0.00  0.00    +0.000 OA
BRANCH  27  28
ATOM     28  C   UNL     1       2.955  -0.549  -0.330  0.00  0.00    +0.000 A 
ATOM     29  C   UNL     1       1.568  -0.161  -0.339  0.00  0.00    +0.000 A 
ATOM     30  O   UNL     1       1.204   1.046   0.131  0.00  0.00    +0.000 OA
ATOM     31  C   UNL     1      -0.163   1.429   0.123  0.00  0.00    +0.000 A 
ATOM     32  C   UNL     1      -1.135   0.521   0.554  0.00  0.00    +0.000 A 
ATOM     33  C   UNL     1      -2.479   0.949   0.546  0.00  0.00    +0.000 A 
ATOM     34  C   UNL     1      -2.817   2.199   0.084  0.00  0.00    +0.000 A 
ATOM     35  C   UNL     1      -1.831   3.071  -0.336  0.00  0.00    +0.000 A 
ATOM     36  C   UNL     1      -0.511   2.689  -0.311  0.00  0.00    +0.000 A 
ATOM     37  C   UNL     1       3.952   0.355   0.182  0.00  0.00    +0.000 A 
ATOM     38  O   UNL     1       5.176   0.012   0.190  0.00  0.00    +0.000 OA
BRANCH  29  39
ATOM     39  C   UNL     1       0.515  -1.115  -0.879  0.00  0.00    +0.000 A 
ATOM     40  C   UNL     1       0.504  -2.451  -0.547  0.00  0.00    +0.000 A 
ATOM     41  C   UNL     1      -0.503  -3.302  -1.015  0.00  0.00    +0.000 A 
ATOM     42  C   UNL     1      -1.513  -2.738  -1.821  0.00  0.00    +0.000 A 
ATOM     43  C   UNL     1      -1.474  -1.409  -2.170  0.00  0.00    +0.000 A 
ATOM     44  C   UNL     1      -0.465  -0.596  -1.691  0.00  0.00    +0.000 A 
BRANCH  42  45
ATOM     45  O   UNL     1      -2.538  -3.479  -2.298  0.00  0.00    +0.000 OA
ATOM     46  H   UNL     1      -2.603  -4.450  -2.068  0.00  0.00    +0.000 HD
ENDBRANCH  42  45
ENDBRANCH  29  39
BRANCH  33  47
ATOM     47  O   UNL     1      -3.483   0.147   0.968  0.00  0.00    +0.000 OA
ATOM     48  H   UNL     1      -3.279  -0.769   1.312  0.00  0.00    +0.000 HD
ENDBRANCH  33  47
BRANCH  35  49
ATOM     49  O   UNL     1      -2.183   4.368  -0.794  0.00  0.00    +0.000 OA
ATOM     50  H   UNL     1      -1.472   5.001  -1.098  0.00  0.00    +0.000 HD
ENDBRANCH  35  49
ENDBRANCH  27  28
ENDBRANCH   3  27
TORSDOF 15
