REMARK  Name = 
REMARK  17 active torsions:
REMARK  status: ('A' for Active; 'I' for Inactive)
REMARK    1  A    between atoms: C_1  and  C_2
REMARK    2  A    between atoms: C_17  and  O_18
REMARK    3  A    between atoms: O_18  and  C_19
REMARK    4  A    between atoms: C_21  and  C_22
REMARK    5  A    between atoms: C_22  and  O_23
REMARK    6  A    between atoms: C_24  and  O_25
REMARK    7  A    between atoms: C_26  and  O_27
REMARK    8  A    between atoms: C_28  and  O_29
REMARK    9  A    between atoms: O_29  and  C_30
REMARK   10  A    between atoms: C_32  and  C_33
REMARK   11  A    between atoms: C_33  and  O_34
REMARK   12  A    between atoms: C_35  and  O_36
REMARK   13  A    between atoms: C_37  and  O_38
REMARK   14  A    between atoms: C_39  and  O_40
REMARK   15  A    between atoms: C_43  and  C_44
REMARK   16  A    between atoms: C_48  and  C_49
REMARK   17  A    between atoms: C_51  and  C_52
REMARK                            x       y       z     vdW  Elec       q    Type
REMARK                         _______ _______ _______ _____ _____    ______ ____
ROOT
ATOM      1  O   UNL     1       2.528  -1.440   2.838  0.00  0.00    +0.000 OA
ENDROOT
BRANCH   1  18
ATOM      2  C   UNL     1       1.030   0.031  -0.090  0.00  0.00    +0.000 C 
ATOM      3  C   UNL     1       0.524   1.018  -1.129  0.00  0.00    +0.000 C 
ATOM      4  C   UNL     1      -0.629   1.753  -0.441  0.00  0.00    +0.000 C 
ATOM      5  C   UNL     1      -0.115   2.548   0.630  0.00  0.00    +0.000 C 
ATOM      6  C   UNL     1       0.810   3.555   0.216  0.00  0.00    +0.000 C 
ATOM      7  O   UNL     1       2.021   2.893  -0.445  0.00  0.00    +0.000 OA
ATOM      8  C   UNL     1       1.546   2.045  -1.629  0.00  0.00    +0.000 C 
ATOM      9  O   UNL     1       0.180   4.425  -0.713  0.00  0.00    +0.000 OA
ATOM     10  C   UNL     1       1.100   5.426  -1.124  0.00  0.00    +0.000 C 
ATOM     11  C   UNL     1       1.432   6.082   0.218  0.00  0.00    +0.000 C 
ATOM     12  C   UNL     1       0.320   5.778   1.224  0.00  0.00    +0.000 C 
ATOM     13  C   UNL     1       0.885   4.940   2.372  0.00  0.00    +0.000 C 
ATOM     14  C   UNL     1      -0.176   3.947   2.850  0.00  0.00    +0.000 C 
ATOM     15  C   UNL     1       0.497   2.786   3.536  0.00  0.00    +0.000 C 
ATOM     16  C   UNL     1       0.903   1.727   2.818  0.00  0.00    +0.000 C 
ATOM     17  C   UNL     1       1.551   0.648   3.542  0.00  0.00    +0.000 C 
ATOM     18  C   UNL     1       2.570  -0.036   2.629  0.00  0.00    +0.000 C 
ATOM     19  C   UNL     1       2.250   0.258   1.244  0.00  0.00    +0.000 C 
ATOM     20  C   UNL     1       2.697  -0.604   0.318  0.00  0.00    +0.000 C 
ATOM     21  C   UNL     1       2.390  -0.370  -1.140  0.00  0.00    +0.000 C 
ATOM     22  C   UNL     1       1.920  -1.161  -2.349  0.00  0.00    +0.000 C 
ATOM     23  C   UNL     1       3.408   0.612  -1.724  0.00  0.00    +0.000 C 
ATOM     24  C   UNL     1       2.745   1.433  -2.832  0.00  0.00    +0.000 C 
ATOM     25  C   UNL     1       3.274   2.868  -2.791  0.00  0.00    +0.000 C 
ATOM     26  C   UNL     1       2.097   3.845  -2.782  0.00  0.00    +0.000 C 
ATOM     27  C   UNL     1       1.555   3.374  -4.122  0.00  0.00    +0.000 C 
ATOM     28  C   UNL     1       2.394   4.993  -1.814  0.00  0.00    +0.000 C 
ATOM     29  C   UNL     1       1.267   4.353   1.427  0.00  0.00    +0.000 C 
ATOM     30  C   UNL     1       0.064   5.010   2.084  0.00  0.00    +0.000 C 
ENDBRANCH   1  18
BRANCH   1  31
ATOM     31  C   UNL     1       1.226  -1.924   2.540  0.00  0.00    +0.000 C 
ATOM     32  O   UNL     1       0.121  -1.461   3.493  0.00  0.00    +0.000 OA
ATOM     33  C   UNL     1      -0.154  -0.077   3.266  0.00  0.00    +0.000 C 
ATOM     34  C   UNL     1      -0.616   0.216   1.946  0.00  0.00    +0.000 C 
ATOM     35  C   UNL     1       0.459  -0.178   0.931  0.00  0.00    +0.000 C 
ATOM     36  C   UNL     1       0.784  -1.666   1.096  0.00  0.00    +0.000 C 
BRANCH  34  37
ATOM     37  O   UNL     1      -0.883   1.607   1.837  0.00  0.00    +0.000 OA
ATOM     38  H   UNL     1      -0.046   2.123   2.020  0.00  0.00    +0.000 HD
ENDBRANCH  34  37
BRANCH  35  39
ATOM     39  O   UNL     1       1.631   0.594   1.151  0.00  0.00    +0.000 OA
ATOM     40  H   UNL     1       1.970   0.428   2.077  0.00  0.00    +0.000 HD
ENDBRANCH  35  39
BRANCH  33  41
ATOM     41  C   UNL     1       1.159   0.666   3.447  0.00  0.00    +0.000 C 
BRANCH  41  42
ATOM     42  O   UNL     1       0.945   2.058   3.261  0.00  0.00    +0.000 OA
ATOM     43  H   UNL     1       0.594   2.220   2.339  0.00  0.00    +0.000 HD
ENDBRANCH  41  42
ENDBRANCH  33  41
BRANCH  36  44
ATOM     44  O   UNL     1       1.827  -2.031   0.204  0.00  0.00    +0.000 OA
BRANCH  44  45
ATOM     45  C   UNL     1       2.985  -1.260   0.488  0.00  0.00    +0.000 C 
ATOM     46  O   UNL     1       2.188   0.046   0.455  0.00  0.00    +0.000 OA
ATOM     47  C   UNL     1       1.025  -0.086   1.275  0.00  0.00    +0.000 C 
ATOM     48  C   UNL     1       1.308  -0.346   2.651  0.00  0.00    +0.000 C 
ATOM     49  C   UNL     1       2.070  -1.668   2.773  0.00  0.00    +0.000 C 
ATOM     50  C   UNL     1       3.352  -1.588   1.939  0.00  0.00    +0.000 C 
BRANCH  48  51
ATOM     51  O   UNL     1       0.091  -0.432   3.377  0.00  0.00    +0.000 OA
ATOM     52  H   UNL     1      -0.467  -1.174   3.006  0.00  0.00    +0.000 HD
ENDBRANCH  48  51
BRANCH  49  53
ATOM     53  O   UNL     1       1.258  -2.733   2.300  0.00  0.00    +0.000 OA
ATOM     54  H   UNL     1       1.022  -2.572   1.341  0.00  0.00    +0.000 HD
ENDBRANCH  49  53
BRANCH  50  55
ATOM     55  O   UNL     1       4.037  -2.831   1.991  0.00  0.00    +0.000 OA
ATOM     56  H   UNL     1       3.447  -3.552   1.627  0.00  0.00    +0.000 HD
ENDBRANCH  50  55
BRANCH  47  57
ATOM     57  C   UNL     1       0.252  -1.286   0.752  0.00  0.00    +0.000 C 
BRANCH  57  58
ATOM     58  O   UNL     1      -0.935  -1.453   1.512  0.00  0.00    +0.000 OA
ATOM     59  H   UNL     1      -0.698  -1.602   2.472  0.00  0.00    +0.000 HD
ENDBRANCH  57  58
ENDBRANCH  47  57
ENDBRANCH  44  45
ENDBRANCH  36  44
ENDBRANCH   1  31
TORSDOF 13
