REMARK  Name = 
REMARK  12 active torsions:
REMARK  status: ('A' for Active; 'I' for Inactive)
REMARK    1  A    between atoms: C_1  and  C_2
REMARK    2  A    between atoms: C_5  and  C_6
REMARK    3  A    between atoms: C_6  and  O_8
REMARK    4  A    between atoms: C_11  and  C_12
REMARK    5  A    between atoms: C_17  and  C_18
REMARK    6  A    between atoms: C_20  and  O_21
REMARK    7  A    between atoms: C_22  and  O_23
REMARK    8  A    between atoms: C_24  and  C_25
REMARK    9  A    between atoms: C_24  and  C_26
REMARK   10  A    between atoms: C_30  and  C_31
REMARK   11  A    between atoms: C_33  and  C_34
REMARK   12  A    between atoms: C_33  and  O_35
REMARK                            x       y       z     vdW  Elec       q    Type
REMARK                         _______ _______ _______ _____ _____    ______ ____
ROOT
ATOM      1  C   UNL     1       0.940   0.079   0.017  0.00  0.00    +0.000 C 
ATOM      2  C   UNL     1       0.434  -1.269   0.505  0.00  0.00    +0.000 C 
ATOM      3  C   UNL     1       1.591  -2.146   0.446  0.00  0.00    +0.000 C 
ATOM      4  C   UNL     1       1.662  -2.990  -0.594  0.00  0.00    +0.000 C 
ATOM      5  C   UNL     1       2.832  -3.931  -0.722  0.00  0.00    +0.000 C 
ATOM      6  C   UNL     1       2.324  -5.333  -1.066  0.00  0.00    +0.000 C 
ATOM      7  C   UNL     1       2.270  -6.179   0.204  0.00  0.00    +0.000 C 
ATOM      8  C   UNL     1       0.814  -6.519   0.529  0.00  0.00    +0.000 C 
ATOM      9  C   UNL     1       0.436  -7.398  -0.652  0.00  0.00    +0.000 C 
ATOM     10  C   UNL     1      -0.955  -3.181   3.021  0.00  0.00    +0.000 C 
ATOM     11  C   UNL     1      -1.632  -4.269   2.745  0.00  0.00    +0.000 C 
ATOM     12  C   UNL     1      -1.276  -5.570   3.417  0.00  0.00    +0.000 C 
ATOM     13  C   UNL     1      -0.887  -6.602   2.357  0.00  0.00    +0.000 C 
ATOM     14  C   UNL     1      -1.694  -6.359   1.091  0.00  0.00    +0.000 C 
ATOM     15  C   UNL     1      -3.173  -6.493   1.415  0.00  0.00    +0.000 C 
ATOM     16  C   UNL     1      -1.404  -4.952   0.562  0.00  0.00    +0.000 C 
ATOM     17  C   UNL     1      -0.024  -4.853   0.206  0.00  0.00    +0.000 C 
ATOM     18  C   UNL     1       0.380  -5.759  -0.823  0.00  0.00    +0.000 C 
ATOM     19  C   UNL     1       0.162  -7.198  -0.350  0.00  0.00    +0.000 C 
ATOM     20  C   UNL     1       1.035  -7.474   0.864  0.00  0.00    +0.000 C 
ATOM     21  C   UNL     1       0.534  -8.162  -1.464  0.00  0.00    +0.000 C 
ATOM     22  C   UNL     1      -1.312  -7.387   0.021  0.00  0.00    +0.000 C 
ATOM     23  C   UNL     1      -1.529  -8.792   0.559  0.00  0.00    +0.000 C 
ATOM     24  C   UNL     1       1.124  -5.151   2.587  0.00  0.00    +0.000 C 
ATOM     25  C   UNL     1       0.605  -6.473   2.043  0.00  0.00    +0.000 C 
ATOM     26  C   UNL     1       1.361  -7.620   2.694  0.00  0.00    +0.000 C 
ATOM     27  C   UNL     1      -1.310  -1.881   2.349  0.00  0.00    +0.000 C 
ATOM     28  C   UNL     1      -0.048  -1.170   1.930  0.00  0.00    +0.000 C 
ATOM     29  C   UNL     1      -0.409   0.299   2.076  0.00  0.00    +0.000 C 
ENDROOT
BRANCH   5  30
ATOM     30  C   UNL     1       4.314  -3.994  -1.052  0.00  0.00    +0.000 C 
ATOM     31  O   UNL     1       4.943  -2.931  -1.354  0.00  0.00    +0.000 OA
BRANCH  30  32
ATOM     32  O   UNL     1       4.996  -5.239  -1.022  0.00  0.00    +0.000 OA
ATOM     33  H   UNL     1       5.972  -5.280  -1.240  0.00  0.00    +0.000 HD
ENDBRANCH  30  32
ENDBRANCH   5  30
BRANCH  17  34
ATOM     34  O   UNL     1       0.724  -5.191   1.365  0.00  0.00    +0.000 OA
ATOM     35  H   UNL     1       0.511  -6.129   1.637  0.00  0.00    +0.000 HD
ENDBRANCH  17  34
BRANCH  18  36
ATOM     36  O   UNL     1       1.755  -5.559  -1.117  0.00  0.00    +0.000 OA
ATOM     37  H   UNL     1       2.299  -5.726  -0.295  0.00  0.00    +0.000 HD
ENDBRANCH  18  36
BRANCH  28  38
ATOM     38  O   UNL     1       0.996  -1.671   2.751  0.00  0.00    +0.000 OA
ATOM     39  H   UNL     1       0.717  -1.624   3.710  0.00  0.00    +0.000 HD
ENDBRANCH  28  38
TORSDOF 5
