REMARK  Name = 
REMARK  12 active torsions:
REMARK  status: ('A' for Active; 'I' for Inactive)
REMARK    1  A    between atoms: C_1  and  C_2
REMARK    2  A    between atoms: C_5  and  C_6
REMARK    3  A    between atoms: C_6  and  O_8
REMARK    4  A    between atoms: C_11  and  C_12
REMARK    5  A    between atoms: C_17  and  C_18
REMARK    6  A    between atoms: C_20  and  O_21
REMARK    7  A    between atoms: C_22  and  O_23
REMARK    8  A    between atoms: C_24  and  C_25
REMARK    9  A    between atoms: C_24  and  C_26
REMARK   10  A    between atoms: C_30  and  C_31
REMARK   11  A    between atoms: C_33  and  C_34
REMARK   12  A    between atoms: C_33  and  O_35
REMARK                            x       y       z     vdW  Elec       q    Type
REMARK                         _______ _______ _______ _____ _____    ______ ____
ROOT
ATOM      1  C   UNL     1       1.092   0.031  -0.026  0.00  0.00    +0.000 C 
ATOM      2  C   UNL     1       0.585  -1.363  -0.357  0.00  0.00    +0.000 C 
ATOM      3  C   UNL     1       0.988  -2.261   0.713  0.00  0.00    +0.000 C 
ATOM      4  C   UNL     1       2.096  -2.990   0.511  0.00  0.00    +0.000 C 
ATOM      5  C   UNL     1       2.575  -3.943   1.574  0.00  0.00    +0.000 C 
ATOM      6  C   UNL     1       2.935  -5.285   0.932  0.00  0.00    +0.000 C 
ATOM      7  C   UNL     1       1.775  -6.262   1.115  0.00  0.00    +0.000 C 
ATOM      8  C   UNL     1       1.169  -6.593  -0.251  0.00  0.00    +0.000 C 
ATOM      9  C   UNL     1       2.318  -7.329  -0.922  0.00  0.00    +0.000 C 
ATOM     10  C   UNL     1      -1.974  -3.498  -1.257  0.00  0.00    +0.000 C 
ATOM     11  C   UNL     1      -1.749  -4.529  -2.032  0.00  0.00    +0.000 C 
ATOM     12  C   UNL     1      -2.193  -5.905  -1.605  0.00  0.00    +0.000 C 
ATOM     13  C   UNL     1      -0.975  -6.827  -1.512  0.00  0.00    +0.000 C 
ATOM     14  C   UNL     1       0.048  -6.426  -2.562  0.00  0.00    +0.000 C 
ATOM     15  C   UNL     1      -0.605  -6.566  -3.928  0.00  0.00    +0.000 C 
ATOM     16  C   UNL     1       0.487  -4.973  -2.363  0.00  0.00    +0.000 C 
ATOM     17  C   UNL     1       1.157  -4.847  -1.107  0.00  0.00    +0.000 C 
ATOM     18  C   UNL     1       2.340  -5.641  -0.994  0.00  0.00    +0.000 C 
ATOM     19  C   UNL     1       1.975  -7.121  -1.138  0.00  0.00    +0.000 C 
ATOM     20  C   UNL     1       1.045  -7.530  -0.008  0.00  0.00    +0.000 C 
ATOM     21  C   UNL     1       3.238  -7.964  -1.079  0.00  0.00    +0.000 C 
ATOM     22  C   UNL     1       1.277  -7.338  -2.484  0.00  0.00    +0.000 C 
ATOM     23  C   UNL     1       0.847  -8.790  -2.611  0.00  0.00    +0.000 C 
ATOM     24  C   UNL     1      -0.893  -5.467   0.572  0.00  0.00    +0.000 C 
ATOM     25  C   UNL     1      -0.351  -6.706  -0.120  0.00  0.00    +0.000 C 
ATOM     26  C   UNL     1      -0.699  -7.938   0.700  0.00  0.00    +0.000 C 
ATOM     27  C   UNL     1      -1.531  -2.123  -1.684  0.00  0.00    +0.000 C 
ATOM     28  C   UNL     1      -0.913  -1.407  -0.509  0.00  0.00    +0.000 C 
ATOM     29  C   UNL     1      -1.282   0.048  -0.754  0.00  0.00    +0.000 C 
ENDROOT
BRANCH   5  30
ATOM     30  C   UNL     1       3.232  -4.011   2.943  0.00  0.00    +0.000 C 
ATOM     31  O   UNL     1       3.560  -2.940   3.544  0.00  0.00    +0.000 OA
BRANCH  30  32
ATOM     32  O   UNL     1       3.480  -5.271   3.551  0.00  0.00    +0.000 OA
ATOM     33  H   UNL     1       3.912  -5.315   4.451  0.00  0.00    +0.000 HD
ENDBRANCH  30  32
ENDBRANCH   5  30
BRANCH  17  34
ATOM     34  O   UNL     1       0.256  -5.311  -0.113  0.00  0.00    +0.000 OA
ATOM     35  H   UNL     1       0.036  -6.271  -0.285  0.00  0.00    +0.000 HD
ENDBRANCH  17  34
BRANCH  18  36
ATOM     36  O   UNL     1       2.938  -5.422   0.274  0.00  0.00    +0.000 OA
ATOM     37  H   UNL     1       2.295  -5.678   0.996  0.00  0.00    +0.000 HD
ENDBRANCH  18  36
BRANCH  28  38
ATOM     38  O   UNL     1      -1.427  -2.022   0.663  0.00  0.00    +0.000 OA
ATOM     39  H   UNL     1      -2.424  -2.072   0.604  0.00  0.00    +0.000 HD
ENDBRANCH  28  38
TORSDOF 5
