
 OpenBabel03132512093D

 83 87  0  0  0  0  0  0  0  0999 V2000
    1.0916    0.0308   -0.0258 C   0  0  0  0  0  0  0  0  0  0  0  0
    0.5849   -1.3635   -0.3567 C   0  0  0  0  0  0  0  0  0  0  0  0
    0.9878   -2.2608    0.7129 C   0  0  0  0  0  0  0  0  0  0  0  0
    2.0965   -2.9896    0.5107 C   0  0  0  0  0  0  0  0  0  0  0  0
    2.5750   -3.9435    1.5744 C   0  0  0  0  0  0  0  0  0  0  0  0
    3.2322   -4.0110    2.9433 C   0  0  0  0  0  0  0  0  0  0  0  0
    3.5600   -2.9403    3.5443 O   0  0  0  0  0  0  0  0  0  0  0  0
    3.4798   -5.2705    3.5506 O   0  0  0  0  0  0  0  0  0  0  0  0
    2.9349   -5.2848    0.9321 C   0  0  0  0  0  0  0  0  0  0  0  0
    1.7749   -6.2619    1.1145 C   0  0  0  0  0  0  0  0  0  0  0  0
    1.1692   -6.5935   -0.2507 C   0  0  0  0  0  0  0  0  0  0  0  0
    2.3178   -7.3286   -0.9221 C   0  0  0  0  0  0  0  0  0  0  0  0
   -1.9744   -3.4979   -1.2566 C   0  0  0  0  0  0  0  0  0  0  0  0
   -1.7494   -4.5295   -2.0324 C   0  0  0  0  0  0  0  0  0  0  0  0
   -2.1926   -5.9053   -1.6055 C   0  0  0  0  0  0  0  0  0  0  0  0
   -0.9745   -6.8273   -1.5115 C   0  0  0  0  0  0  0  0  0  0  0  0
    0.0478   -6.4258   -2.5623 C   0  0  0  0  0  0  0  0  0  0  0  0
   -0.6045   -6.5663   -3.9280 C   0  0  0  0  0  0  0  0  0  0  0  0
    0.4874   -4.9734   -2.3633 C   0  0  0  0  0  0  0  0  0  0  0  0
    1.1574   -4.8469   -1.1072 C   0  0  0  0  0  0  0  0  0  0  0  0
    0.2556   -5.3110   -0.1133 O   0  0  0  0  0  0  0  0  0  0  0  0
    2.3396   -5.6414   -0.9944 C   0  0  0  0  0  0  0  0  0  0  0  0
    2.9383   -5.4221    0.2744 O   0  0  0  0  0  0  0  0  0  0  0  0
    1.9749   -7.1208   -1.1381 C   0  0  0  0  0  0  0  0  0  0  0  0
    1.0449   -7.5304   -0.0077 C   0  0  0  0  0  0  0  0  0  0  0  0
    3.2381   -7.9642   -1.0785 C   0  0  0  0  0  0  0  0  0  0  0  0
    1.2767   -7.3378   -2.4842 C   0  0  0  0  0  0  0  0  0  0  0  0
    0.8467   -8.7902   -2.6110 C   0  0  0  0  0  0  0  0  0  0  0  0
   -0.8932   -5.4666    0.5723 C   0  0  0  0  0  0  0  0  0  0  0  0
   -0.3508   -6.7063   -0.1200 C   0  0  0  0  0  0  0  0  0  0  0  0
   -0.6989   -7.9378    0.7001 C   0  0  0  0  0  0  0  0  0  0  0  0
   -1.5314   -2.1231   -1.6836 C   0  0  0  0  0  0  0  0  0  0  0  0
   -0.9135   -1.4068   -0.5092 C   0  0  0  0  0  0  0  0  0  0  0  0
   -1.2820    0.0475   -0.7537 C   0  0  0  0  0  0  0  0  0  0  0  0
   -1.4273   -2.0221    0.6628 O   0  0  0  0  0  0  0  0  0  0  0  0
    0.7349    0.3199    0.9407 H   0  0  0  0  0  0  0  0  0  0  0  0
    0.7349    0.7234   -0.7593 H   0  0  0  0  0  0  0  0  0  0  0  0
    2.1616    0.0308   -0.0258 H   0  0  0  0  0  0  0  0  0  0  0  0
    1.0068   -1.6615   -1.2938 H   0  0  0  0  0  0  0  0  0  0  0  0
    1.2218   -1.6218    1.5387 H   0  0  0  0  0  0  0  0  0  0  0  0
    0.1805   -2.9417    0.8845 H   0  0  0  0  0  0  0  0  0  0  0  0
    2.8718   -2.2532    0.4737 H   0  0  0  0  0  0  0  0  0  0  0  0
    1.9276   -3.5705   -0.3719 H   0  0  0  0  0  0  0  0  0  0  0  0
    3.9122   -5.3149    4.4512 H   0  0  0  0  0  0  0  0  0  0  0  0
    3.1218   -5.1426   -0.1118 H   0  0  0  0  0  0  0  0  0  0  0  0
    3.8121   -5.6806    1.3997 H   0  0  0  0  0  0  0  0  0  0  0  0
    2.1331   -7.1596    1.5737 H   0  0  0  0  0  0  0  0  0  0  0  0
    1.0279   -5.8166    1.7377 H   0  0  0  0  0  0  0  0  0  0  0  0
    1.9445   -7.8911   -1.7523 H   0  0  0  0  0  0  0  0  0  0  0  0
    3.0412   -6.6200   -1.2678 H   0  0  0  0  0  0  0  0  0  0  0  0
    2.7762   -7.9921   -0.2189 H   0  0  0  0  0  0  0  0  0  0  0  0
   -1.2507   -4.3951   -2.9695 H   0  0  0  0  0  0  0  0  0  0  0  0
   -2.8819   -6.2970   -2.3242 H   0  0  0  0  0  0  0  0  0  0  0  0
   -2.6695   -5.8458   -0.6495 H   0  0  0  0  0  0  0  0  0  0  0  0
   -1.2791   -7.8392   -1.6793 H   0  0  0  0  0  0  0  0  0  0  0  0
   -0.9076   -7.5817   -4.0758 H   0  0  0  0  0  0  0  0  0  0  0  0
   -1.4608   -5.9270   -3.9817 H   0  0  0  0  0  0  0  0  0  0  0  0
    0.0958   -6.2890   -4.6880 H   0  0  0  0  0  0  0  0  0  0  0  0
    1.1522   -4.6904   -3.1525 H   0  0  0  0  0  0  0  0  0  0  0  0
   -0.3717   -4.3358   -2.3752 H   0  0  0  0  0  0  0  0  0  0  0  0
    1.4282   -3.8205   -0.9726 H   0  0  0  0  0  0  0  0  0  0  0  0
    0.0360   -6.2713   -0.2848 H   0  0  0  0  0  0  0  0  0  0  0  0
    3.0286   -5.3672   -1.7658 H   0  0  0  0  0  0  0  0  0  0  0  0
    2.2946   -5.6783    0.9955 H   0  0  0  0  0  0  0  0  0  0  0  0
    0.7908   -8.5645   -0.1119 H   0  0  0  0  0  0  0  0  0  0  0  0
    1.5350   -7.3763    0.9309 H   0  0  0  0  0  0  0  0  0  0  0  0
    0.1543   -6.9386   -0.0464 H   0  0  0  0  0  0  0  0  0  0  0  0
    3.8943   -7.6804   -1.8746 H   0  0  0  0  0  0  0  0  0  0  0  0
    3.7275   -7.8077   -0.1399 H   0  0  0  0  0  0  0  0  0  0  0  0
    2.9817   -8.9982   -1.1790 H   0  0  0  0  0  0  0  0  0  0  0  0
    1.9509   -7.1000   -3.2803 H   0  0  0  0  0  0  0  0  0  0  0  0
    1.7074   -9.4232   -2.5540 H   0  0  0  0  0  0  0  0  0  0  0  0
    0.1720   -9.0330   -1.8168 H   0  0  0  0  0  0  0  0  0  0  0  0
   -1.9564   -5.5455    0.6636 H   0  0  0  0  0  0  0  0  0  0  0  0
   -0.4569   -5.3820    1.5456 H   0  0  0  0  0  0  0  0  0  0  0  0
   -0.2626   -7.8531    1.6735 H   0  0  0  0  0  0  0  0  0  0  0  0
   -1.7620   -8.0167    0.7915 H   0  0  0  0  0  0  0  0  0  0  0  0
   -0.3170   -8.8105    0.2128 H   0  0  0  0  0  0  0  0  0  0  0  0
   -1.9869   -1.7153   -2.5617 H   0  0  0  0  0  0  0  0  0  0  0  0
   -2.3455    0.1383   -0.8282 H   0  0  0  0  0  0  0  0  0  0  0  0
   -0.9289    0.6465    0.0596 H   0  0  0  0  0  0  0  0  0  0  0  0
   -0.8309    0.3814   -1.6647 H   0  0  0  0  0  0  0  0  0  0  0  0
   -2.4243   -2.0716    0.6036 H   0  0  0  0  0  0  0  0  0  0  0  0
  1  2  1  0  0  0  0
  1 36  1  0  0  0  0
  1 37  1  0  0  0  0
  1 38  1  0  0  0  0
  2  3  1  0  0  0  0
  2 33  1  0  0  0  0
  2 39  1  0  0  0  0
  3  4  1  0  0  0  0
  3 40  1  0  0  0  0
  3 41  1  0  0  0  0
  4  5  1  0  0  0  0
  4 42  1  0  0  0  0
  4 43  1  0  0  0  0
  5  6  1  0  0  0  0
  5  9  1  0  0  0  0
  5 32  1  0  0  0  0
  6  7  2  0  0  0  0
  6  8  1  0  0  0  0
  8 44  1  0  0  0  0
  9 10  1  0  0  0  0
  9 45  1  0  0  0  0
  9 46  1  0  0  0  0
 10 11  1  0  0  0  0
 10 47  1  0  0  0  0
 10 48  1  0  0  0  0
 11 12  1  0  0  0  0
 11 13  1  0  0  0  0
 11 30  1  0  0  0  0
 12 49  1  0  0  0  0
 12 50  1  0  0  0  0
 12 51  1  0  0  0  0
 13 14  2  0  0  0  0
 13 32  1  0  0  0  0
 14 15  1  0  0  0  0
 14 52  1  0  0  0  0
 15 16  1  0  0  0  0
 15 53  1  0  0  0  0
 15 54  1  0  0  0  0
 16 17  1  0  0  0  0
 16 30  1  0  0  0  0
 16 55  1  0  0  0  0
 17 18  1  0  0  0  0
 17 19  1  0  0  0  0
 17 27  1  0  0  0  0
 18 56  1  0  0  0  0
 18 57  1  0  0  0  0
 18 58  1  0  0  0  0
 19 20  1  0  0  0  0
 19 59  1  0  0  0  0
 19 60  1  0  0  0  0
 20 21  1  0  0  0  0
 20 22  1  0  0  0  0
 20 61  1  0  0  0  0
 21 62  1  0  0  0  0
 22 23  1  0  0  0  0
 22 24  1  0  0  0  0
 22 63  1  0  0  0  0
 23 64  1  0  0  0  0
 24 25  1  0  0  0  0
 24 26  1  0  0  0  0
 24 27  1  0  0  0  0
 25 65  1  0  0  0  0
 25 66  1  0  0  0  0
 25 67  1  0  0  0  0
 26 68  1  0  0  0  0
 26 69  1  0  0  0  0
 26 70  1  0  0  0  0
 27 28  1  0  0  0  0
 27 71  1  0  0  0  0
 28 29  1  0  0  0  0
 28 72  1  0  0  0  0
 28 73  1  0  0  0  0
 29 30  1  0  0  0  0
 29 74  1  0  0  0  0
 29 75  1  0  0  0  0
 30 31  1  0  0  0  0
 31 76  1  0  0  0  0
 31 77  1  0  0  0  0
 31 78  1  0  0  0  0
 32 33  1  0  0  0  0
 32 79  1  0  0  0  0
 33 34  1  0  0  0  0
 33 35  1  0  0  0  0
 34 80  1  0  0  0  0
 34 81  1  0  0  0  0
 34 82  1  0  0  0  0
 35 83  1  0  0  0  0
M  END
