
 OpenBabel03132514253D

 83 87  0  0  0  0  0  0  0  0999 V2000
    0.9404    0.0786    0.0168 C   0  0  0  0  0  0  0  0  0  0  0  0
    0.4338   -1.2686    0.5054 C   0  0  0  0  0  0  0  0  0  0  0  0
    1.5910   -2.1455    0.4462 C   0  0  0  0  0  0  0  0  0  0  0  0
    1.6619   -2.9904   -0.5941 C   0  0  0  0  0  0  0  0  0  0  0  0
    2.8318   -3.9313   -0.7217 C   0  0  0  0  0  0  0  0  0  0  0  0
    4.3142   -3.9936   -1.0517 C   0  0  0  0  0  0  0  0  0  0  0  0
    4.9431   -2.9313   -1.3540 O   0  0  0  0  0  0  0  0  0  0  0  0
    4.9964   -5.2386   -1.0224 O   0  0  0  0  0  0  0  0  0  0  0  0
    2.3238   -5.3329   -1.0661 C   0  0  0  0  0  0  0  0  0  0  0  0
    2.2698   -6.1792    0.2045 C   0  0  0  0  0  0  0  0  0  0  0  0
    0.8137   -6.5185    0.5288 C   0  0  0  0  0  0  0  0  0  0  0  0
    0.4365   -7.3976   -0.6525 C   0  0  0  0  0  0  0  0  0  0  0  0
   -0.9548   -3.1813    3.0212 C   0  0  0  0  0  0  0  0  0  0  0  0
   -1.6316   -4.2685    2.7448 C   0  0  0  0  0  0  0  0  0  0  0  0
   -1.2762   -5.5697    3.4172 C   0  0  0  0  0  0  0  0  0  0  0  0
   -0.8869   -6.6023    2.3565 C   0  0  0  0  0  0  0  0  0  0  0  0
   -1.6937   -6.3589    1.0915 C   0  0  0  0  0  0  0  0  0  0  0  0
   -3.1728   -6.4929    1.4151 C   0  0  0  0  0  0  0  0  0  0  0  0
   -1.4040   -4.9525    0.5618 C   0  0  0  0  0  0  0  0  0  0  0  0
   -0.0235   -4.8531    0.2057 C   0  0  0  0  0  0  0  0  0  0  0  0
    0.7239   -5.1910    1.3649 O   0  0  0  0  0  0  0  0  0  0  0  0
    0.3798   -5.7586   -0.8232 C   0  0  0  0  0  0  0  0  0  0  0  0
    1.7547   -5.5595   -1.1173 O   0  0  0  0  0  0  0  0  0  0  0  0
    0.1623   -7.1977   -0.3496 C   0  0  0  0  0  0  0  0  0  0  0  0
    1.0348   -7.4741    0.8639 C   0  0  0  0  0  0  0  0  0  0  0  0
    0.5341   -8.1618   -1.4644 C   0  0  0  0  0  0  0  0  0  0  0  0
   -1.3118   -7.3871    0.0215 C   0  0  0  0  0  0  0  0  0  0  0  0
   -1.5291   -8.7921    0.5594 C   0  0  0  0  0  0  0  0  0  0  0  0
    1.1236   -5.1513    2.5868 C   0  0  0  0  0  0  0  0  0  0  0  0
    0.6048   -6.4727    2.0434 C   0  0  0  0  0  0  0  0  0  0  0  0
    1.3606   -7.6198    2.6941 C   0  0  0  0  0  0  0  0  0  0  0  0
   -1.3103   -1.8810    2.3491 C   0  0  0  0  0  0  0  0  0  0  0  0
   -0.0482   -1.1704    1.9296 C   0  0  0  0  0  0  0  0  0  0  0  0
   -0.4093    0.2988    2.0758 C   0  0  0  0  0  0  0  0  0  0  0  0
    0.9963   -1.6707    2.7513 O   0  0  0  0  0  0  0  0  0  0  0  0
    0.5838    0.8506    0.6661 H   0  0  0  0  0  0  0  0  0  0  0  0
    0.5838    0.2549   -0.9765 H   0  0  0  0  0  0  0  0  0  0  0  0
    2.0104    0.0786    0.0168 H   0  0  0  0  0  0  0  0  0  0  0  0
   -0.3861   -1.6210   -0.0849 H   0  0  0  0  0  0  0  0  0  0  0  0
    2.4300   -1.4915    0.3311 H   0  0  0  0  0  0  0  0  0  0  0  0
    1.5970   -2.7330    1.3404 H   0  0  0  0  0  0  0  0  0  0  0  0
    1.7783   -2.3376   -1.4338 H   0  0  0  0  0  0  0  0  0  0  0  0
    0.7805   -3.5961   -0.5607 H   0  0  0  0  0  0  0  0  0  0  0  0
    5.9717   -5.2796   -1.2395 H   0  0  0  0  0  0  0  0  0  0  0  0
    1.3444   -5.2637   -1.4914 H   0  0  0  0  0  0  0  0  0  0  0  0
    2.9864   -5.7895   -1.7713 H   0  0  0  0  0  0  0  0  0  0  0  0
    2.8223   -7.0833    0.0551 H   0  0  0  0  0  0  0  0  0  0  0  0
    2.6978   -5.6304    1.0172 H   0  0  0  0  0  0  0  0  0  0  0  0
   -0.4400   -7.9620   -0.4114 H   0  0  0  0  0  0  0  0  0  0  0  0
    0.2414   -6.7831   -1.5064 H   0  0  0  0  0  0  0  0  0  0  0  0
    1.2425   -8.0665   -0.8710 H   0  0  0  0  0  0  0  0  0  0  0  0
   -2.4371   -4.2327    2.0414 H   0  0  0  0  0  0  0  0  0  0  0  0
   -2.1194   -5.9273    3.9705 H   0  0  0  0  0  0  0  0  0  0  0  0
   -0.4529   -5.4142    4.0826 H   0  0  0  0  0  0  0  0  0  0  0  0
   -1.0901   -7.5862    2.7248 H   0  0  0  0  0  0  0  0  0  0  0  0
   -3.3693   -7.4776    1.7847 H   0  0  0  0  0  0  0  0  0  0  0  0
   -3.4418   -5.7724    2.1590 H   0  0  0  0  0  0  0  0  0  0  0  0
   -3.7485   -6.3229    0.5293 H   0  0  0  0  0  0  0  0  0  0  0  0
   -2.0094   -4.7640   -0.3001 H   0  0  0  0  0  0  0  0  0  0  0  0
   -1.6296   -4.2322    1.3202 H   0  0  0  0  0  0  0  0  0  0  0  0
    0.1656   -3.8554   -0.1315 H   0  0  0  0  0  0  0  0  0  0  0  0
    0.5111   -6.1294    1.6370 H   0  0  0  0  0  0  0  0  0  0  0  0
   -0.2023   -5.5808   -1.7033 H   0  0  0  0  0  0  0  0  0  0  0  0
    2.2989   -5.7256   -0.2950 H   0  0  0  0  0  0  0  0  0  0  0  0
    0.8794   -8.4802    1.1933 H   0  0  0  0  0  0  0  0  0  0  0  0
    2.0635   -7.3395    0.6018 H   0  0  0  0  0  0  0  0  0  0  0  0
    0.7759   -6.7971    1.6510 H   0  0  0  0  0  0  0  0  0  0  0  0
   -0.0800   -7.9719   -2.3198 H   0  0  0  0  0  0  0  0  0  0  0  0
    1.5625   -8.0248   -1.7262 H   0  0  0  0  0  0  0  0  0  0  0  0
    0.3816   -9.1673   -1.1319 H   0  0  0  0  0  0  0  0  0  0  0  0
   -1.9213   -7.2448   -0.8463 H   0  0  0  0  0  0  0  0  0  0  0  0
   -1.2594   -9.5065   -0.1901 H   0  0  0  0  0  0  0  0  0  0  0  0
   -0.9215   -8.9395    1.4277 H   0  0  0  0  0  0  0  0  0  0  0  0
    0.9774   -5.1193    3.6463 H   0  0  0  0  0  0  0  0  0  0  0  0
    2.1670   -5.0607    2.3678 H   0  0  0  0  0  0  0  0  0  0  0  0
    2.4040   -7.5291    2.4751 H   0  0  0  0  0  0  0  0  0  0  0  0
    1.2145   -7.5877    3.7536 H   0  0  0  0  0  0  0  0  0  0  0  0
    0.9954   -8.5500    2.3116 H   0  0  0  0  0  0  0  0  0  0  0  0
   -2.2791   -1.4756    2.5542 H   0  0  0  0  0  0  0  0  0  0  0  0
   -0.7218    0.4910    3.0809 H   0  0  0  0  0  0  0  0  0  0  0  0
    0.4452    0.9006    1.8467 H   0  0  0  0  0  0  0  0  0  0  0  0
   -1.2055    0.5390    1.4026 H   0  0  0  0  0  0  0  0  0  0  0  0
    0.7174   -1.6238    3.7104 H   0  0  0  0  0  0  0  0  0  0  0  0
  1  2  1  0  0  0  0
  1 36  1  0  0  0  0
  1 37  1  0  0  0  0
  1 38  1  0  0  0  0
  2  3  1  0  0  0  0
  2 33  1  0  0  0  0
  2 39  1  0  0  0  0
  3  4  1  0  0  0  0
  3 40  1  0  0  0  0
  3 41  1  0  0  0  0
  4  5  1  0  0  0  0
  4 42  1  0  0  0  0
  4 43  1  0  0  0  0
  5  6  1  0  0  0  0
  5  9  1  0  0  0  0
  5 32  1  0  0  0  0
  6  7  2  0  0  0  0
  6  8  1  0  0  0  0
  8 44  1  0  0  0  0
  9 10  1  0  0  0  0
  9 45  1  0  0  0  0
  9 46  1  0  0  0  0
 10 11  1  0  0  0  0
 10 47  1  0  0  0  0
 10 48  1  0  0  0  0
 11 12  1  0  0  0  0
 11 13  1  0  0  0  0
 11 30  1  0  0  0  0
 12 49  1  0  0  0  0
 12 50  1  0  0  0  0
 12 51  1  0  0  0  0
 13 14  2  0  0  0  0
 13 32  1  0  0  0  0
 14 15  1  0  0  0  0
 14 52  1  0  0  0  0
 15 16  1  0  0  0  0
 15 53  1  0  0  0  0
 15 54  1  0  0  0  0
 16 17  1  0  0  0  0
 16 30  1  0  0  0  0
 16 55  1  0  0  0  0
 17 18  1  0  0  0  0
 17 19  1  0  0  0  0
 17 27  1  0  0  0  0
 18 56  1  0  0  0  0
 18 57  1  0  0  0  0
 18 58  1  0  0  0  0
 19 20  1  0  0  0  0
 19 59  1  0  0  0  0
 19 60  1  0  0  0  0
 20 21  1  0  0  0  0
 20 22  1  0  0  0  0
 20 61  1  0  0  0  0
 21 62  1  0  0  0  0
 22 23  1  0  0  0  0
 22 24  1  0  0  0  0
 22 63  1  0  0  0  0
 23 64  1  0  0  0  0
 24 25  1  0  0  0  0
 24 26  1  0  0  0  0
 24 27  1  0  0  0  0
 25 65  1  0  0  0  0
 25 66  1  0  0  0  0
 25 67  1  0  0  0  0
 26 68  1  0  0  0  0
 26 69  1  0  0  0  0
 26 70  1  0  0  0  0
 27 28  1  0  0  0  0
 27 71  1  0  0  0  0
 28 29  1  0  0  0  0
 28 72  1  0  0  0  0
 28 73  1  0  0  0  0
 29 30  1  0  0  0  0
 29 74  1  0  0  0  0
 29 75  1  0  0  0  0
 30 31  1  0  0  0  0
 31 76  1  0  0  0  0
 31 77  1  0  0  0  0
 31 78  1  0  0  0  0
 32 33  1  0  0  0  0
 32 79  1  0  0  0  0
 33 34  1  0  0  0  0
 33 35  1  0  0  0  0
 34 80  1  0  0  0  0
 34 81  1  0  0  0  0
 34 82  1  0  0  0  0
 35 83  1  0  0  0  0
M  END
