REMARK  Name = 
REMARK  3 active torsions:
REMARK  status: ('A' for Active; 'I' for Inactive)
REMARK    1  A    between atoms: C_6  and  C_7
REMARK    2  A    between atoms: C_13  and  C_14
REMARK    3  A    between atoms: C_13  and  C_15
REMARK                            x       y       z     vdW  Elec       q    Type
REMARK                         _______ _______ _______ _____ _____    ______ ____
ROOT
ATOM      1  C   UNL     1       1.094   0.019   0.029  0.00  0.00    +0.000 C 
ATOM      2  C   UNL     1       0.414  -0.245   1.177  0.00  0.00    +0.000 C 
ATOM      3  C   UNL     1       1.103  -0.536   2.443  0.00  0.00    +0.000 C 
ATOM      4  C   UNL     1       0.840  -2.033   2.770  0.00  0.00    +0.000 C 
ATOM      5  C   UNL     1       0.945  -2.794   1.446  0.00  0.00    +0.000 C 
ATOM      6  C   UNL     1      -0.164  -3.420   1.092  0.00  0.00    +0.000 C 
ATOM      7  C   UNL     1      -0.217  -4.167  -0.230  0.00  0.00    +0.000 C 
ATOM      8  C   UNL     1      -1.375  -3.400   1.984  0.00  0.00    +0.000 C 
ATOM      9  C   UNL     1      -2.312  -2.260   1.576  0.00  0.00    +0.000 C 
ATOM     10  C   UNL     1      -1.778  -0.960   2.189  0.00  0.00    +0.000 C 
ATOM     11  C   UNL     1      -0.912  -0.254   1.217  0.00  0.00    +0.000 C 
ATOM     12  C   UNL     1      -0.430  -0.012   4.045  0.00  0.00    +0.000 C 
ATOM     13  C   UNL     1      -0.962  -1.294   3.427  0.00  0.00    +0.000 C 
ATOM     14  C   UNL     1      -1.842  -2.016   4.434  0.00  0.00    +0.000 C 
ATOM     15  C   UNL     1       0.203  -2.190   3.039  0.00  0.00    +0.000 C 
ENDROOT
TORSDOF 0
