
 OpenBabel03132512093D

 39 40  0  0  0  0  0  0  0  0999 V2000
    1.0940    0.0186    0.0285 C   0  0  0  0  0  0  0  0  0  0  0  0
    0.4138   -0.2449    1.1768 C   0  0  0  0  0  0  0  0  0  0  0  0
    1.1027   -0.5357    2.4426 C   0  0  0  0  0  0  0  0  0  0  0  0
    0.8395   -2.0332    2.7698 C   0  0  0  0  0  0  0  0  0  0  0  0
    0.9453   -2.7937    1.4461 C   0  0  0  0  0  0  0  0  0  0  0  0
   -0.1642   -3.4195    1.0924 C   0  0  0  0  0  0  0  0  0  0  0  0
   -0.2168   -4.1671   -0.2300 C   0  0  0  0  0  0  0  0  0  0  0  0
   -1.3751   -3.3996    1.9845 C   0  0  0  0  0  0  0  0  0  0  0  0
   -2.3125   -2.2603    1.5761 C   0  0  0  0  0  0  0  0  0  0  0  0
   -1.7777   -0.9600    2.1886 C   0  0  0  0  0  0  0  0  0  0  0  0
   -0.9125   -0.2540    1.2166 C   0  0  0  0  0  0  0  0  0  0  0  0
   -0.4303   -0.0116    4.0450 C   0  0  0  0  0  0  0  0  0  0  0  0
   -0.9617   -1.2944    3.4266 C   0  0  0  0  0  0  0  0  0  0  0  0
   -1.8420   -2.0158    4.4341 C   0  0  0  0  0  0  0  0  0  0  0  0
    0.2034   -2.1904    3.0387 C   0  0  0  0  0  0  0  0  0  0  0  0
    0.5590    0.2259   -0.8747 H   0  0  0  0  0  0  0  0  0  0  0  0
    2.1640    0.0186    0.0285 H   0  0  0  0  0  0  0  0  0  0  0  0
    0.7421    0.0958    3.2275 H   0  0  0  0  0  0  0  0  0  0  0  0
    2.1532   -0.3616    2.3376 H   0  0  0  0  0  0  0  0  0  0  0  0
   -0.1233   -2.1676    3.2168 H   0  0  0  0  0  0  0  0  0  0  0  0
    1.5708   -2.3940    3.4626 H   0  0  0  0  0  0  0  0  0  0  0  0
    1.8390   -2.8170    0.8582 H   0  0  0  0  0  0  0  0  0  0  0  0
   -0.0337   -3.4844   -1.0333 H   0  0  0  0  0  0  0  0  0  0  0  0
    0.5297   -4.9337   -0.2363 H   0  0  0  0  0  0  0  0  0  0  0  0
   -1.1835   -4.6096   -0.3514 H   0  0  0  0  0  0  0  0  0  0  0  0
   -1.0615   -3.2486    2.9963 H   0  0  0  0  0  0  0  0  0  0  0  0
   -1.8931   -4.3319    1.8985 H   0  0  0  0  0  0  0  0  0  0  0  0
   -3.3051   -2.4538    1.9258 H   0  0  0  0  0  0  0  0  0  0  0  0
   -2.3371   -2.1756    0.5098 H   0  0  0  0  0  0  0  0  0  0  0  0
   -2.6006   -0.3291    2.4524 H   0  0  0  0  0  0  0  0  0  0  0  0
   -1.1911    0.7757    1.2996 H   0  0  0  0  0  0  0  0  0  0  0  0
    0.1441   -0.2470    4.9165 H   0  0  0  0  0  0  0  0  0  0  0  0
    0.1894    0.4962    3.3358 H   0  0  0  0  0  0  0  0  0  0  0  0
   -2.2161   -2.9188    3.9988 H   0  0  0  0  0  0  0  0  0  0  0  0
   -1.2676   -2.2512    5.3056 H   0  0  0  0  0  0  0  0  0  0  0  0
   -2.6621   -1.3851    4.7071 H   0  0  0  0  0  0  0  0  0  0  0  0
   -0.1707   -3.0934    2.6034 H   0  0  0  0  0  0  0  0  0  0  0  0
    0.8231   -1.6826    2.3295 H   0  0  0  0  0  0  0  0  0  0  0  0
    0.7778   -2.4258    3.9102 H   0  0  0  0  0  0  0  0  0  0  0  0
  1  2  2  0  0  0  0
  1 16  1  0  0  0  0
  1 17  1  0  0  0  0
  2  3  1  0  0  0  0
  2 11  1  0  0  0  0
  3  4  1  0  0  0  0
  3 18  1  0  0  0  0
  3 19  1  0  0  0  0
  4  5  1  0  0  0  0
  4 20  1  0  0  0  0
  4 21  1  0  0  0  0
  5  6  2  0  0  0  0
  5 22  1  0  0  0  0
  6  7  1  0  0  0  0
  6  8  1  0  0  0  0
  7 23  1  0  0  0  0
  7 24  1  0  0  0  0
  7 25  1  0  0  0  0
  8  9  1  0  0  0  0
  8 26  1  0  0  0  0
  8 27  1  0  0  0  0
  9 10  1  0  0  0  0
  9 28  1  0  0  0  0
  9 29  1  0  0  0  0
 10 11  1  0  0  0  0
 10 13  1  0  0  0  0
 10 30  1  0  0  0  0
 11 12  1  0  0  0  0
 11 31  1  0  0  0  0
 12 13  1  0  0  0  0
 12 32  1  0  0  0  0
 12 33  1  0  0  0  0
 13 14  1  0  0  0  0
 13 15  1  0  0  0  0
 14 34  1  0  0  0  0
 14 35  1  0  0  0  0
 14 36  1  0  0  0  0
 15 37  1  0  0  0  0
 15 38  1  0  0  0  0
 15 39  1  0  0  0  0
M  END
