
 OpenBabel03132512093D

 45 46  0  0  0  0  0  0  0  0999 V2000
    0.9960    0.0854    0.0520 O   0  0  0  0  0  0  0  0  0  0  0  0
    0.5227    0.0614    1.3905 C   0  0  0  0  0  0  0  0  0  0  0  0
    1.0294   -1.1924    2.0847 C   0  0  0  0  0  0  0  0  0  0  0  0
    0.4074   -2.5697    1.8430 O   0  0  0  0  0  0  0  0  0  0  0  0
    0.3199   -2.8122    0.4372 C   0  0  0  0  0  0  0  0  0  0  0  0
   -0.4312   -1.7422   -0.1171 O   0  0  0  0  0  0  0  0  0  0  0  0
    0.2462   -0.5166    0.1182 C   0  0  0  0  0  0  0  0  0  0  0  0
    0.3046   -1.4534    1.3271 O   0  0  0  0  0  0  0  0  0  0  0  0
    0.8656   -2.7068    0.9311 C   0  0  0  0  0  0  0  0  0  0  0  0
    0.0058   -3.2321   -0.2070 C   0  0  0  0  0  0  0  0  0  0  0  0
    0.4984   -4.4955   -0.6283 O   0  0  0  0  0  0  0  0  0  0  0  0
    2.2009   -2.6160    0.4309 C   0  0  0  0  0  0  0  0  0  0  0  0
    2.6694   -3.9132    0.0930 O   0  0  0  0  0  0  0  0  0  0  0  0
    2.2191   -1.7262   -0.8143 C   0  0  0  0  0  0  0  0  0  0  0  0
    1.4249   -2.3147   -1.8337 O   0  0  0  0  0  0  0  0  0  0  0  0
    1.6571   -0.3472   -0.4547 C   0  0  0  0  0  0  0  0  0  0  0  0
    1.6081    0.4682   -1.6162 O   0  0  0  0  0  0  0  0  0  0  0  0
    1.5819   -2.8204   -0.2326 C   0  0  0  0  0  0  0  0  0  0  0  0
    1.3843   -3.0948   -1.6118 O   0  0  0  0  0  0  0  0  0  0  0  0
    2.2514   -1.4532   -0.0749 C   0  0  0  0  0  0  0  0  0  0  0  0
    1.4515   -0.4555   -0.6922 O   0  0  0  0  0  0  0  0  0  0  0  0
    2.4071   -1.1391    1.4164 C   0  0  0  0  0  0  0  0  0  0  0  0
    2.9683    0.1553    1.5775 O   0  0  0  0  0  0  0  0  0  0  0  0
    1.9960    0.0854    0.0520 H   0  0  0  0  0  0  0  0  0  0  0  0
    0.8794    0.9258    1.9105 H   0  0  0  0  0  0  0  0  0  0  0  0
   -0.5473    0.0614    1.3905 H   0  0  0  0  0  0  0  0  0  0  0  0
    0.8690   -1.1518    3.1418 H   0  0  0  0  0  0  0  0  0  0  0  0
   -0.1456   -3.7642    0.2888 H   0  0  0  0  0  0  0  0  0  0  0  0
   -0.1050    0.4775   -0.0640 H   0  0  0  0  0  0  0  0  0  0  0  0
    0.8685   -3.3572    1.7807 H   0  0  0  0  0  0  0  0  0  0  0  0
   -1.0048   -3.3371    0.1286 H   0  0  0  0  0  0  0  0  0  0  0  0
    0.0399   -2.5447   -1.0263 H   0  0  0  0  0  0  0  0  0  0  0  0
    1.4429   -4.3973   -0.9420 H   0  0  0  0  0  0  0  0  0  0  0  0
    2.8350   -2.1923    1.1814 H   0  0  0  0  0  0  0  0  0  0  0  0
    2.0769   -4.3093   -0.6085 H   0  0  0  0  0  0  0  0  0  0  0  0
    3.2244   -1.6226   -1.1657 H   0  0  0  0  0  0  0  0  0  0  0  0
    0.4844   -2.4130   -1.5086 H   0  0  0  0  0  0  0  0  0  0  0  0
    2.2869    0.1176    0.2748 H   0  0  0  0  0  0  0  0  0  0  0  0
    1.0204    0.0377   -2.3011 H   0  0  0  0  0  0  0  0  0  0  0  0
    2.2078   -3.5756    0.1949 H   0  0  0  0  0  0  0  0  0  0  0  0
    0.7993   -2.3891   -2.0116 H   0  0  0  0  0  0  0  0  0  0  0  0
    3.2150   -1.4705   -0.5397 H   0  0  0  0  0  0  0  0  0  0  0  0
    0.5499   -0.4365   -0.2601 H   0  0  0  0  0  0  0  0  0  0  0  0
    3.0536   -1.8614    1.8694 H   0  0  0  0  0  0  0  0  0  0  0  0
    2.3673    0.8341    1.1555 H   0  0  0  0  0  0  0  0  0  0  0  0
  1  2  1  0  0  0  0
  1 24  1  0  0  0  0
  2  3  1  0  0  0  0
  2 25  1  0  0  0  0
  2 26  1  0  0  0  0
  3  4  1  0  0  0  0
  3 22  1  0  0  0  0
  3 27  1  0  0  0  0
  4  5  1  0  0  0  0
  5  6  1  0  0  0  0
  5 18  1  0  0  0  0
  5 28  1  0  0  0  0
  6  7  1  0  0  0  0
  7  8  1  0  0  0  0
  7 16  1  0  0  0  0
  7 29  1  0  0  0  0
  8  9  1  0  0  0  0
  9 10  1  0  0  0  0
  9 12  1  0  0  0  0
  9 30  1  0  0  0  0
 10 11  1  0  0  0  0
 10 31  1  0  0  0  0
 10 32  1  0  0  0  0
 11 33  1  0  0  0  0
 12 13  1  0  0  0  0
 12 14  1  0  0  0  0
 12 34  1  0  0  0  0
 13 35  1  0  0  0  0
 14 15  1  0  0  0  0
 14 16  1  0  0  0  0
 14 36  1  0  0  0  0
 15 37  1  0  0  0  0
 16 17  1  0  0  0  0
 16 38  1  0  0  0  0
 17 39  1  0  0  0  0
 18 19  1  0  0  0  0
 18 20  1  0  0  0  0
 18 40  1  0  0  0  0
 19 41  1  0  0  0  0
 20 21  1  0  0  0  0
 20 22  1  0  0  0  0
 20 42  1  0  0  0  0
 21 43  1  0  0  0  0
 22 23  1  0  0  0  0
 22 44  1  0  0  0  0
 23 45  1  0  0  0  0
M  END
