REMARK  Name = 
REMARK  12 active torsions:
REMARK  status: ('A' for Active; 'I' for Inactive)
REMARK    1  A    between atoms: O_1  and  C_2
REMARK    2  A    between atoms: C_2  and  C_3
REMARK    3  A    between atoms: C_5  and  O_6
REMARK    4  A    between atoms: O_6  and  C_7
REMARK    5  A    between atoms: C_9  and  C_10
REMARK    6  A    between atoms: C_10  and  O_11
REMARK    7  A    between atoms: C_12  and  O_13
REMARK    8  A    between atoms: C_14  and  O_15
REMARK    9  A    between atoms: C_16  and  O_17
REMARK   10  A    between atoms: C_18  and  O_19
REMARK   11  A    between atoms: C_20  and  O_21
REMARK   12  A    between atoms: C_22  and  O_23
REMARK                            x       y       z     vdW  Elec       q    Type
REMARK                         _______ _______ _______ _____ _____    ______ ____
ROOT
ATOM      1  O   UNL     1      -0.431  -1.742  -0.117  0.00  0.00    +0.000 OA
ENDROOT
BRANCH   1   4
ATOM      2  C   UNL     1       1.029  -1.192   2.085  0.00  0.00    +0.000 C 
ATOM      3  O   UNL     1       0.407  -2.570   1.843  0.00  0.00    +0.000 OA
ATOM      4  C   UNL     1       0.320  -2.812   0.437  0.00  0.00    +0.000 C 
ATOM      5  C   UNL     1       1.582  -2.820  -0.233  0.00  0.00    +0.000 C 
ATOM      6  C   UNL     1       2.251  -1.453  -0.075  0.00  0.00    +0.000 C 
ATOM      7  C   UNL     1       2.407  -1.139   1.416  0.00  0.00    +0.000 C 
BRANCH   5   8
ATOM      8  O   UNL     1       1.384  -3.095  -1.612  0.00  0.00    +0.000 OA
ATOM      9  H   UNL     1       0.799  -2.389  -2.012  0.00  0.00    +0.000 HD
ENDBRANCH   5   8
BRANCH   6  10
ATOM     10  O   UNL     1       1.452  -0.456  -0.692  0.00  0.00    +0.000 OA
ATOM     11  H   UNL     1       0.550  -0.436  -0.260  0.00  0.00    +0.000 HD
ENDBRANCH   6  10
BRANCH   7  12
ATOM     12  O   UNL     1       2.968   0.155   1.577  0.00  0.00    +0.000 OA
ATOM     13  H   UNL     1       2.367   0.834   1.155  0.00  0.00    +0.000 HD
ENDBRANCH   7  12
BRANCH   2  14
ATOM     14  C   UNL     1       0.523   0.061   1.391  0.00  0.00    +0.000 C 
BRANCH  14  15
ATOM     15  O   UNL     1       0.996   0.085   0.052  0.00  0.00    +0.000 OA
ATOM     16  H   UNL     1       1.996   0.085   0.052  0.00  0.00    +0.000 HD
ENDBRANCH  14  15
ENDBRANCH   2  14
ENDBRANCH   1   4
BRANCH   1  17
ATOM     17  C   UNL     1       0.246  -0.517   0.118  0.00  0.00    +0.000 C 
ATOM     18  O   UNL     1       0.305  -1.453   1.327  0.00  0.00    +0.000 OA
ATOM     19  C   UNL     1       0.866  -2.707   0.931  0.00  0.00    +0.000 C 
ATOM     20  C   UNL     1       2.201  -2.616   0.431  0.00  0.00    +0.000 C 
ATOM     21  C   UNL     1       2.219  -1.726  -0.814  0.00  0.00    +0.000 C 
ATOM     22  C   UNL     1       1.657  -0.347  -0.455  0.00  0.00    +0.000 C 
BRANCH  20  23
ATOM     23  O   UNL     1       2.669  -3.913   0.093  0.00  0.00    +0.000 OA
ATOM     24  H   UNL     1       2.077  -4.309  -0.609  0.00  0.00    +0.000 HD
ENDBRANCH  20  23
BRANCH  21  25
ATOM     25  O   UNL     1       1.425  -2.315  -1.834  0.00  0.00    +0.000 OA
ATOM     26  H   UNL     1       0.484  -2.413  -1.509  0.00  0.00    +0.000 HD
ENDBRANCH  21  25
BRANCH  22  27
ATOM     27  O   UNL     1       1.608   0.468  -1.616  0.00  0.00    +0.000 OA
ATOM     28  H   UNL     1       1.020   0.038  -2.301  0.00  0.00    +0.000 HD
ENDBRANCH  22  27
BRANCH  19  29
ATOM     29  C   UNL     1       0.006  -3.232  -0.207  0.00  0.00    +0.000 C 
BRANCH  29  30
ATOM     30  O   UNL     1       0.498  -4.495  -0.628  0.00  0.00    +0.000 OA
ATOM     31  H   UNL     1       1.443  -4.397  -0.942  0.00  0.00    +0.000 HD
ENDBRANCH  29  30
ENDBRANCH  19  29
ENDBRANCH   1  17
TORSDOF 12
