REMARK  Name = 
REMARK  12 active torsions:
REMARK  status: ('A' for Active; 'I' for Inactive)
REMARK    1  A    between atoms: O_1  and  C_2
REMARK    2  A    between atoms: C_2  and  C_3
REMARK    3  A    between atoms: C_5  and  O_6
REMARK    4  A    between atoms: O_6  and  C_7
REMARK    5  A    between atoms: C_9  and  C_10
REMARK    6  A    between atoms: C_10  and  O_11
REMARK    7  A    between atoms: C_12  and  O_13
REMARK    8  A    between atoms: C_14  and  O_15
REMARK    9  A    between atoms: C_16  and  O_17
REMARK   10  A    between atoms: C_18  and  O_19
REMARK   11  A    between atoms: C_20  and  O_21
REMARK   12  A    between atoms: C_22  and  O_23
REMARK                            x       y       z     vdW  Elec       q    Type
REMARK                         _______ _______ _______ _____ _____    ______ ____
ROOT
ATOM      1  O   UNL     1       2.616   1.487  -0.741  0.00  0.00    +0.000 OA
ENDROOT
BRANCH   1   4
ATOM      2  C   UNL     1       0.964   2.050   1.317  0.00  0.00    +0.000 C 
ATOM      3  O   UNL     1       2.404   1.579   1.534  0.00  0.00    +0.000 OA
ATOM      4  C   UNL     1       3.215   2.006   0.438  0.00  0.00    +0.000 C 
ATOM      5  C   UNL     1       3.278   3.425   0.277  0.00  0.00    +0.000 C 
ATOM      6  C   UNL     1       1.873   3.970   0.009  0.00  0.00    +0.000 C 
ATOM      7  C   UNL     1       0.951   3.575   1.167  0.00  0.00    +0.000 C 
BRANCH   5   8
ATOM      8  O   UNL     1       4.125   3.740  -0.818  0.00  0.00    +0.000 OA
ATOM      9  H   UNL     1       3.760   3.326  -1.652  0.00  0.00    +0.000 HD
ENDBRANCH   5   8
BRANCH   6  10
ATOM     10  O   UNL     1       1.374   3.429  -1.205  0.00  0.00    +0.000 OA
ATOM     11  H   UNL     1       1.336   2.432  -1.135  0.00  0.00    +0.000 HD
ENDBRANCH   6  10
BRANCH   7  12
ATOM     12  O   UNL     1      -0.371   4.019   0.900  0.00  0.00    +0.000 OA
ATOM     13  H   UNL     1      -0.700   3.599   0.055  0.00  0.00    +0.000 HD
ENDBRANCH   7  12
BRANCH   2  14
ATOM     14  C   UNL     1       0.457   1.401   0.040  0.00  0.00    +0.000 C 
BRANCH  14  15
ATOM     15  O   UNL     1       0.930   0.064  -0.032  0.00  0.00    +0.000 OA
ATOM     16  H   UNL     1       1.930   0.064  -0.032  0.00  0.00    +0.000 HD
ENDBRANCH  14  15
ENDBRANCH   2  14
ENDBRANCH   1   4
BRANCH   1  17
ATOM     17  C   UNL     1       1.305   2.014  -0.878  0.00  0.00    +0.000 C 
ATOM     18  O   UNL     1       0.418   1.407   0.212  0.00  0.00    +0.000 OA
ATOM     19  C   UNL     1       0.644   2.093   1.445  0.00  0.00    +0.000 C 
ATOM     20  C   UNL     1       0.330   3.486   1.404  0.00  0.00    +0.000 C 
ATOM     21  C   UNL     1       1.213   4.177   0.363  0.00  0.00    +0.000 C 
ATOM     22  C   UNL     1       0.998   3.511  -1.000  0.00  0.00    +0.000 C 
BRANCH  20  23
ATOM     23  O   UNL     1       0.564   4.062   2.681  0.00  0.00    +0.000 OA
ATOM     24  H   UNL     1       1.526   3.944   2.929  0.00  0.00    +0.000 HD
ENDBRANCH  20  23
BRANCH  21  25
ATOM     25  O   UNL     1       2.577   4.062   0.741  0.00  0.00    +0.000 OA
ATOM     26  H   UNL     1       2.826   3.095   0.800  0.00  0.00    +0.000 HD
ENDBRANCH  21  25
BRANCH  22  27
ATOM     27  O   UNL     1       1.860   4.100  -1.963  0.00  0.00    +0.000 OA
ATOM     28  H   UNL     1       2.811   3.977  -1.679  0.00  0.00    +0.000 HD
ENDBRANCH  22  27
BRANCH  19  29
ATOM     29  C   UNL     1       2.131   1.987   1.740  0.00  0.00    +0.000 C 
BRANCH  29  30
ATOM     30  O   UNL     1       2.416   2.628   2.974  0.00  0.00    +0.000 OA
ATOM     31  H   UNL     1       2.156   3.592   2.917  0.00  0.00    +0.000 HD
ENDBRANCH  29  30
ENDBRANCH  19  29
ENDBRANCH   1  17
TORSDOF 12
