
 OpenBabel03132514253D

 45 46  0  0  0  0  0  0  0  0999 V2000
    0.9304    0.0642   -0.0322 O   0  0  0  0  0  0  0  0  0  0  0  0
    0.4571    1.4011    0.0395 C   0  0  0  0  0  0  0  0  0  0  0  0
    0.9637    2.0501    1.3171 C   0  0  0  0  0  0  0  0  0  0  0  0
    2.4036    1.5791    1.5342 O   0  0  0  0  0  0  0  0  0  0  0  0
    3.2145    2.0062    0.4375 C   0  0  0  0  0  0  0  0  0  0  0  0
    2.6162    1.4868   -0.7410 O   0  0  0  0  0  0  0  0  0  0  0  0
    1.3050    2.0144   -0.8782 C   0  0  0  0  0  0  0  0  0  0  0  0
    0.4182    1.4075    0.2116 O   0  0  0  0  0  0  0  0  0  0  0  0
    0.6440    2.0927    1.4453 C   0  0  0  0  0  0  0  0  0  0  0  0
    2.1314    1.9870    1.7398 C   0  0  0  0  0  0  0  0  0  0  0  0
    2.4164    2.6285    2.9741 O   0  0  0  0  0  0  0  0  0  0  0  0
    0.3299    3.4859    1.4043 C   0  0  0  0  0  0  0  0  0  0  0  0
    0.5639    4.0620    2.6809 O   0  0  0  0  0  0  0  0  0  0  0  0
    1.2132    4.1769    0.3628 C   0  0  0  0  0  0  0  0  0  0  0  0
    2.5770    4.0620    0.7411 O   0  0  0  0  0  0  0  0  0  0  0  0
    0.9984    3.5107   -0.9998 C   0  0  0  0  0  0  0  0  0  0  0  0
    1.8599    4.0998   -1.9626 O   0  0  0  0  0  0  0  0  0  0  0  0
    3.2778    3.4245    0.2769 C   0  0  0  0  0  0  0  0  0  0  0  0
    4.1253    3.7398   -0.8179 O   0  0  0  0  0  0  0  0  0  0  0  0
    1.8732    3.9702    0.0090 C   0  0  0  0  0  0  0  0  0  0  0  0
    1.3741    3.4292   -1.2053 O   0  0  0  0  0  0  0  0  0  0  0  0
    0.9513    3.5749    1.1668 C   0  0  0  0  0  0  0  0  0  0  0  0
   -0.3706    4.0195    0.9002 O   0  0  0  0  0  0  0  0  0  0  0  0
    1.9304    0.0642   -0.0322 H   0  0  0  0  0  0  0  0  0  0  0  0
    0.8137    1.9515   -0.8059 H   0  0  0  0  0  0  0  0  0  0  0  0
   -0.6129    1.4011    0.0395 H   0  0  0  0  0  0  0  0  0  0  0  0
    0.3414    1.7798    2.1445 H   0  0  0  0  0  0  0  0  0  0  0  0
    4.2082    1.6407    0.5919 H   0  0  0  0  0  0  0  0  0  0  0  0
    1.1057    1.7254   -1.8889 H   0  0  0  0  0  0  0  0  0  0  0  0
    0.0398    1.6341    2.2000 H   0  0  0  0  0  0  0  0  0  0  0  0
    2.4105    0.9558    1.8010 H   0  0  0  0  0  0  0  0  0  0  0  0
    2.6848    2.4603    0.9557 H   0  0  0  0  0  0  0  0  0  0  0  0
    2.1556    3.5922    2.9169 H   0  0  0  0  0  0  0  0  0  0  0  0
   -0.6991    3.6121    1.1396 H   0  0  0  0  0  0  0  0  0  0  0  0
    1.5255    3.9442    2.9286 H   0  0  0  0  0  0  0  0  0  0  0  0
    0.9503    5.2123    0.3005 H   0  0  0  0  0  0  0  0  0  0  0  0
    2.8262    3.0953    0.8002 H   0  0  0  0  0  0  0  0  0  0  0  0
   -0.0174    3.6446   -1.3083 H   0  0  0  0  0  0  0  0  0  0  0  0
    2.8108    3.9770   -1.6785 H   0  0  0  0  0  0  0  0  0  0  0  0
    3.6685    3.8674    1.1692 H   0  0  0  0  0  0  0  0  0  0  0  0
    3.7604    3.3260   -1.6519 H   0  0  0  0  0  0  0  0  0  0  0  0
    1.9124    5.0366   -0.0695 H   0  0  0  0  0  0  0  0  0  0  0  0
    1.3362    2.4324   -1.1353 H   0  0  0  0  0  0  0  0  0  0  0  0
    1.2985    4.0273    2.0722 H   0  0  0  0  0  0  0  0  0  0  0  0
   -0.6995    3.5992    0.0546 H   0  0  0  0  0  0  0  0  0  0  0  0
  1  2  1  0  0  0  0
  1 24  1  0  0  0  0
  2  3  1  0  0  0  0
  2 25  1  0  0  0  0
  2 26  1  0  0  0  0
  3  4  1  0  0  0  0
  3 22  1  0  0  0  0
  3 27  1  0  0  0  0
  4  5  1  0  0  0  0
  5  6  1  0  0  0  0
  5 18  1  0  0  0  0
  5 28  1  0  0  0  0
  6  7  1  0  0  0  0
  7  8  1  0  0  0  0
  7 16  1  0  0  0  0
  7 29  1  0  0  0  0
  8  9  1  0  0  0  0
  9 10  1  0  0  0  0
  9 12  1  0  0  0  0
  9 30  1  0  0  0  0
 10 11  1  0  0  0  0
 10 31  1  0  0  0  0
 10 32  1  0  0  0  0
 11 33  1  0  0  0  0
 12 13  1  0  0  0  0
 12 14  1  0  0  0  0
 12 34  1  0  0  0  0
 13 35  1  0  0  0  0
 14 15  1  0  0  0  0
 14 16  1  0  0  0  0
 14 36  1  0  0  0  0
 15 37  1  0  0  0  0
 16 17  1  0  0  0  0
 16 38  1  0  0  0  0
 17 39  1  0  0  0  0
 18 19  1  0  0  0  0
 18 20  1  0  0  0  0
 18 40  1  0  0  0  0
 19 41  1  0  0  0  0
 20 21  1  0  0  0  0
 20 22  1  0  0  0  0
 20 42  1  0  0  0  0
 21 43  1  0  0  0  0
 22 23  1  0  0  0  0
 22 44  1  0  0  0  0
 23 45  1  0  0  0  0
M  END
