REMARK  Name = 
REMARK  5 active torsions:
REMARK  status: ('A' for Active; 'I' for Inactive)
REMARK    1  A    between atoms: C_1  and  O_2
REMARK    2  A    between atoms: O_2  and  C_3
REMARK    3  A    between atoms: N_10  and  C_11
REMARK    4  A    between atoms: C_20  and  O_21
REMARK    5  A    between atoms: O_21  and  C_22
REMARK                            x       y       z     vdW  Elec       q    Type
REMARK                         _______ _______ _______ _____ _____    ______ ____
ROOT
ATOM      1  C   UNL     1       0.782  -2.283   0.826  0.00  0.00    +0.000 A 
ATOM      2  C   UNL     1      -0.164  -3.257   0.985  0.00  0.00    +0.000 A 
ATOM      3  C   UNL     1       0.182  -4.617   0.823  0.00  0.00    +0.000 A 
ATOM      4  N   UNL     1      -0.781  -5.585   0.954  0.00  0.00    +0.000 NA
ATOM      5  C   UNL     1      -0.390  -6.820   0.794  0.00  0.00    +0.000 A 
ATOM      6  N   UNL     1       0.880  -7.252   0.524  0.00  0.00    +0.000 NA
ATOM      7  C   UNL     1       1.813  -6.338   0.410  0.00  0.00    +0.000 A 
ATOM      8  N   UNL     1       3.197  -6.759   0.146  0.00  0.00    +0.000 N 
ATOM      9  C   UNL     1       1.525  -4.949   0.535  0.00  0.00    +0.000 A 
ATOM     10  C   UNL     1       2.488  -3.925   0.390  0.00  0.00    +0.000 A 
ATOM     11  C   UNL     1       2.117  -2.618   0.527  0.00  0.00    +0.000 A 
ATOM     12  H   UNL     1       3.934  -6.060   0.055  0.00  0.00    +0.000 HD
ENDROOT
BRANCH   8  13
ATOM     13  C   UNL     1       3.518  -8.187   0.014  0.00  0.00    +0.000 A 
ATOM     14  C   UNL     1       2.901  -8.923  -0.985  0.00  0.00    +0.000 A 
ATOM     15  C   UNL     1       3.199 -10.271  -1.152  0.00  0.00    +0.000 A 
ATOM     16  C   UNL     1       4.104 -10.892  -0.297  0.00  0.00    +0.000 A 
ATOM     17  C   UNL     1       4.686 -10.147   0.716  0.00  0.00    +0.000 A 
ATOM     18 CL   UNL     1       5.801 -10.936   1.788  0.00  0.00    +0.000 Cl
ATOM     19  C   UNL     1       4.434  -8.792   0.874  0.00  0.00    +0.000 A 
ENDBRANCH   8  13
BRANCH   1  21
ATOM     20  C   UNL     1       0.913   0.040   0.028  0.00  0.00    +0.000 C 
ATOM     21  O   UNL     1       0.439  -0.912   0.969  0.00  0.00    +0.000 OA
ENDBRANCH   1  21
BRANCH  11  22
ATOM     22  O   UNL     1       3.083  -1.589   0.366  0.00  0.00    +0.000 OA
ATOM     23  C   UNL     1       2.702  -0.229   0.507  0.00  0.00    +0.000 C 
ENDBRANCH  11  22
TORSDOF 3
