
 OpenBabel03132512093D

 36 38  0  0  0  0  0  0  0  0999 V2000
    0.9127    0.0399    0.0281 C   0  0  0  0  0  0  0  0  0  0  0  0
    0.4394   -0.9124    0.9690 O   0  0  0  0  0  0  0  0  0  0  0  0
    0.7824   -2.2829    0.8259 C   0  0  0  0  0  0  0  0  0  0  0  0
   -0.1639   -3.2567    0.9850 C   0  0  0  0  0  0  0  0  0  0  0  0
    0.1818   -4.6169    0.8227 C   0  0  0  0  0  0  0  0  0  0  0  0
   -0.7808   -5.5853    0.9537 N   0  0  0  0  0  0  0  0  0  0  0  0
   -0.3903   -6.8197    0.7937 C   0  0  0  0  0  0  0  0  0  0  0  0
    0.8802   -7.2515    0.5242 N   0  0  0  0  0  0  0  0  0  0  0  0
    1.8134   -6.3375    0.4104 C   0  0  0  0  0  0  0  0  0  0  0  0
    3.1968   -6.7587    0.1465 N   0  0  0  0  0  0  0  0  0  0  0  0
    3.5177   -8.1871    0.0140 C   0  0  0  0  0  0  0  0  0  0  0  0
    2.9015   -8.9230   -0.9854 C   0  0  0  0  0  0  0  0  0  0  0  0
    3.1988  -10.2710   -1.1518 C   0  0  0  0  0  0  0  0  0  0  0  0
    4.1037  -10.8916   -0.2969 C   0  0  0  0  0  0  0  0  0  0  0  0
    4.6855  -10.1471    0.7155 C   0  0  0  0  0  0  0  0  0  0  0  0
    5.8011  -10.9362    1.7878 Cl  0  0  0  0  0  0  0  0  0  0  0  0
    4.4337   -8.7924    0.8735 C   0  0  0  0  0  0  0  0  0  0  0  0
    1.5250   -4.9487    0.5351 C   0  0  0  0  0  0  0  0  0  0  0  0
    2.4884   -3.9246    0.3898 C   0  0  0  0  0  0  0  0  0  0  0  0
    2.1170   -2.6176    0.5266 C   0  0  0  0  0  0  0  0  0  0  0  0
    3.0830   -1.5893    0.3659 O   0  0  0  0  0  0  0  0  0  0  0  0
    2.7019   -0.2287    0.5072 C   0  0  0  0  0  0  0  0  0  0  0  0
    0.5561    1.0128    0.2950 H   0  0  0  0  0  0  0  0  0  0  0  0
    0.5561   -0.2153   -0.9479 H   0  0  0  0  0  0  0  0  0  0  0  0
    1.9827    0.0399    0.0281 H   0  0  0  0  0  0  0  0  0  0  0  0
   -1.1694   -2.9878    1.2331 H   0  0  0  0  0  0  0  0  0  0  0  0
   -1.1432   -7.5748    0.8825 H   0  0  0  0  0  0  0  0  0  0  0  0
    3.9341   -6.0597    0.0553 H   0  0  0  0  0  0  0  0  0  0  0  0
    2.1925   -8.4510   -1.6330 H   0  0  0  0  0  0  0  0  0  0  0  0
    2.7324  -10.8299   -1.9360 H   0  0  0  0  0  0  0  0  0  0  0  0
    4.3461  -11.9266   -0.4194 H   0  0  0  0  0  0  0  0  0  0  0  0
    4.9292   -8.2268    1.6347 H   0  0  0  0  0  0  0  0  0  0  0  0
    3.5064   -4.1730    0.1730 H   0  0  0  0  0  0  0  0  0  0  0  0
    1.9497    0.0080   -0.2161 H   0  0  0  0  0  0  0  0  0  0  0  0
    2.3138   -0.0673    1.4912 H   0  0  0  0  0  0  0  0  0  0  0  0
    3.5549    0.3985    0.3529 H   0  0  0  0  0  0  0  0  0  0  0  0
  1  2  1  0  0  0  0
  1 23  1  0  0  0  0
  1 24  1  0  0  0  0
  1 25  1  0  0  0  0
  2  3  1  0  0  0  0
  3  4  1  0  0  0  0
  3 20  2  0  0  0  0
  4  5  2  0  0  0  0
  4 26  1  0  0  0  0
  5  6  1  0  0  0  0
  5 18  1  0  0  0  0
  6  7  2  0  0  0  0
  7  8  1  0  0  0  0
  7 27  1  0  0  0  0
  8  9  2  0  0  0  0
  9 10  1  0  0  0  0
  9 18  1  0  0  0  0
 10 11  1  0  0  0  0
 10 28  1  0  0  0  0
 11 12  1  0  0  0  0
 11 17  2  0  0  0  0
 12 13  2  0  0  0  0
 12 29  1  0  0  0  0
 13 14  1  0  0  0  0
 13 30  1  0  0  0  0
 14 15  2  0  0  0  0
 14 31  1  0  0  0  0
 15 16  1  0  0  0  0
 15 17  1  0  0  0  0
 17 32  1  0  0  0  0
 18 19  2  0  0  0  0
 19 20  1  0  0  0  0
 19 33  1  0  0  0  0
 20 21  1  0  0  0  0
 21 22  1  0  0  0  0
 22 34  1  0  0  0  0
 22 35  1  0  0  0  0
 22 36  1  0  0  0  0
M  END
