REMARK  Name = 
REMARK  10 active torsions:
REMARK  status: ('A' for Active; 'I' for Inactive)
REMARK    1  A    between atoms: C_1  and  C_2
REMARK    2  A    between atoms: C_5  and  C_6
REMARK    3  A    between atoms: C_6  and  O_8
REMARK    4  A    between atoms: C_11  and  C_12
REMARK    5  A    between atoms: C_17  and  C_18
REMARK    6  A    between atoms: C_21  and  O_22
REMARK    7  A    between atoms: C_23  and  C_24
REMARK    8  A    between atoms: C_23  and  C_25
REMARK    9  A    between atoms: C_29  and  C_30
REMARK   10  A    between atoms: C_32  and  C_33
REMARK                            x       y       z     vdW  Elec       q    Type
REMARK                         _______ _______ _______ _____ _____    ______ ____
ROOT
ATOM      1  C   UNL     1       1.062  -0.059  -0.052  0.00  0.00    +0.000 C 
ATOM      2  C   UNL     1       0.555   1.293   0.422  0.00  0.00    +0.000 C 
ATOM      3  C   UNL     1       0.126   1.218   1.808  0.00  0.00    +0.000 C 
ATOM      4  C   UNL     1      -1.197   1.213   2.036  0.00  0.00    +0.000 C 
ATOM      5  C   UNL     1      -1.717   1.139   3.448  0.00  0.00    +0.000 C 
ATOM      6  C   UNL     1      -2.827   2.175   3.638  0.00  0.00    +0.000 C 
ATOM      7  C   UNL     1      -2.253   3.416   4.319  0.00  0.00    +0.000 C 
ATOM      8  C   UNL     1      -2.308   4.599   3.351  0.00  0.00    +0.000 C 
ATOM      9  C   UNL     1      -3.807   4.789   3.189  0.00  0.00    +0.000 C 
ATOM     10  C   UNL     1       1.442   4.605   0.819  0.00  0.00    +0.000 C 
ATOM     11  C   UNL     1       0.547   5.558   0.728  0.00  0.00    +0.000 C 
ATOM     12  C   UNL     1       0.413   6.575   1.832  0.00  0.00    +0.000 C 
ATOM     13  C   UNL     1      -1.002   6.511   2.414  0.00  0.00    +0.000 C 
ATOM     14  C   UNL     1      -1.986   6.144   1.316  0.00  0.00    +0.000 C 
ATOM     15  C   UNL     1      -1.918   7.214   0.239  0.00  0.00    +0.000 C 
ATOM     16  C   UNL     1      -1.624   4.788   0.705  0.00  0.00    +0.000 C 
ATOM     17  C   UNL     1      -1.745   3.770   1.701  0.00  0.00    +0.000 C 
ATOM     18  C   UNL     1      -3.063   3.629   2.233  0.00  0.00    +0.000 C 
ATOM     19  C   UNL     1      -3.484   4.938   2.906  0.00  0.00    +0.000 C 
ATOM     20  C   UNL     1      -2.554   5.235   4.071  0.00  0.00    +0.000 C 
ATOM     21  C   UNL     1      -4.908   4.810   3.421  0.00  0.00    +0.000 C 
ATOM     22  C   UNL     1      -3.408   6.075   1.883  0.00  0.00    +0.000 C 
ATOM     23  C   UNL     1      -3.756   7.394   2.555  0.00  0.00    +0.000 C 
ATOM     24  C   UNL     1       0.181   4.567   3.426  0.00  0.00    +0.000 C 
ATOM     25  C   UNL     1      -1.050   5.454   3.519  0.00  0.00    +0.000 C 
ATOM     26  C   UNL     1      -1.080   6.139   4.875  0.00  0.00    +0.000 C 
ATOM     27  C   UNL     1       1.577   3.590  -0.285  0.00  0.00    +0.000 C 
ATOM     28  C   UNL     1       1.742   2.215   0.314  0.00  0.00    +0.000 C 
ATOM     29  C   UNL     1       2.645   1.507  -0.682  0.00  0.00    +0.000 C 
ENDROOT
BRANCH   5  30
ATOM     30  C   UNL     1      -1.887   0.206   4.636  0.00  0.00    +0.000 C 
ATOM     31  O   UNL     1      -1.489  -0.998   4.560  0.00  0.00    +0.000 OA
BRANCH  30  32
ATOM     32  O   UNL     1      -2.492   0.680   5.830  0.00  0.00    +0.000 OA
ATOM     33  H   UNL     1      -2.604   0.067   6.612  0.00  0.00    +0.000 HD
ENDBRANCH  30  32
ENDBRANCH   5  30
BRANCH  18  34
ATOM     34  O   UNL     1      -3.078   2.579   3.189  0.00  0.00    +0.000 OA
ATOM     35  H   UNL     1      -2.441   2.793   3.929  0.00  0.00    +0.000 HD
ENDBRANCH  18  34
TORSDOF 3
