REMARK  Name = 
REMARK  10 active torsions:
REMARK  status: ('A' for Active; 'I' for Inactive)
REMARK    1  A    between atoms: C_1  and  C_2
REMARK    2  A    between atoms: C_5  and  C_6
REMARK    3  A    between atoms: C_6  and  O_8
REMARK    4  A    between atoms: C_11  and  C_12
REMARK    5  A    between atoms: C_17  and  C_18
REMARK    6  A    between atoms: C_21  and  O_22
REMARK    7  A    between atoms: C_23  and  C_24
REMARK    8  A    between atoms: C_23  and  C_25
REMARK    9  A    between atoms: C_29  and  C_30
REMARK   10  A    between atoms: C_32  and  C_33
REMARK                            x       y       z     vdW  Elec       q    Type
REMARK                         _______ _______ _______ _____ _____    ______ ____
ROOT
ATOM      1  C   UNL     1       1.014   0.093  -0.033  0.00  0.00    +0.000 C 
ATOM      2  C   UNL     1       0.507   1.507   0.203  0.00  0.00    +0.000 C 
ATOM      3  C   UNL     1      -0.332   1.552   1.388  0.00  0.00    +0.000 C 
ATOM      4  C   UNL     1      -1.659   1.586   1.194  0.00  0.00    +0.000 C 
ATOM      5  C   UNL     1      -2.593   1.635   2.376  0.00  0.00    +0.000 C 
ATOM      6  C   UNL     1      -3.665   2.700   2.134  0.00  0.00    +0.000 C 
ATOM      7  C   UNL     1      -3.280   3.983   2.867  0.00  0.00    +0.000 C 
ATOM      8  C   UNL     1      -2.987   5.084   1.847  0.00  0.00    +0.000 C 
ATOM      9  C   UNL     1      -4.354   5.283   1.213  0.00  0.00    +0.000 C 
ATOM     10  C   UNL     1       1.359   4.827   0.613  0.00  0.00    +0.000 C 
ATOM     11  C   UNL     1       0.575   5.782   0.179  0.00  0.00    +0.000 C 
ATOM     12  C   UNL     1       0.146   6.888   1.109  0.00  0.00    +0.000 C 
ATOM     13  C   UNL     1      -1.380   6.893   1.226  0.00  0.00    +0.000 C 
ATOM     14  C   UNL     1      -1.991   6.452  -0.094  0.00  0.00    +0.000 C 
ATOM     15  C   UNL     1      -1.550   7.421  -1.179  0.00  0.00    +0.000 C 
ATOM     16  C   UNL     1      -1.517   5.043  -0.458  0.00  0.00    +0.000 C 
ATOM     17  C   UNL     1      -1.975   4.117   0.530  0.00  0.00    +0.000 C 
ATOM     18  C   UNL     1      -3.397   4.043   0.646  0.00  0.00    +0.000 C 
ATOM     19  C   UNL     1      -3.947   5.412   1.054  0.00  0.00    +0.000 C 
ATOM     20  C   UNL     1      -3.401   5.796   2.420  0.00  0.00    +0.000 C 
ATOM     21  C   UNL     1      -5.464   5.352   1.119  0.00  0.00    +0.000 C 
ATOM     22  C   UNL     1      -3.519   6.455   0.017  0.00  0.00    +0.000 C 
ATOM     23  C   UNL     1      -3.999   7.832   0.445  0.00  0.00    +0.000 C 
ATOM     24  C   UNL     1      -0.646   5.021   2.694  0.00  0.00    +0.000 C 
ATOM     25  C   UNL     1      -1.809   5.931   2.334  0.00  0.00    +0.000 C 
ATOM     26  C   UNL     1      -2.229   6.725   3.560  0.00  0.00    +0.000 C 
ATOM     27  C   UNL     1       1.788   3.722  -0.317  0.00  0.00    +0.000 C 
ATOM     28  C   UNL     1       1.705   2.399   0.402  0.00  0.00    +0.000 C 
ATOM     29  C   UNL     1       2.843   1.598  -0.208  0.00  0.00    +0.000 C 
ENDROOT
BRANCH   5  30
ATOM     30  C   UNL     1      -3.158   0.805   3.516  0.00  0.00    +0.000 C 
ATOM     31  O   UNL     1      -2.804  -0.407   3.656  0.00  0.00    +0.000 OA
BRANCH  30  32
ATOM     32  O   UNL     1      -4.083   1.385   4.425  0.00  0.00    +0.000 OA
ATOM     33  H   UNL     1      -4.455   0.839   5.176  0.00  0.00    +0.000 HD
ENDBRANCH  30  32
ENDBRANCH   5  30
BRANCH  18  34
ATOM     34  O   UNL     1      -3.743   3.081   1.631  0.00  0.00    +0.000 OA
ATOM     35  H   UNL     1      -3.351   3.349   2.511  0.00  0.00    +0.000 HD
ENDBRANCH  18  34
TORSDOF 3
