
 OpenBabel03132514253D

 26 25  0  0  0  0  0  0  0  0999 V2000
    0.9927   -0.0721    0.0689 C   0  0  0  0  0  0  0  0  0  0  0  0
    0.4861   -1.3750    0.6656 C   0  0  0  0  0  0  0  0  0  0  0  0
    0.9927   -1.5097    2.0924 C   0  0  0  0  0  0  0  0  0  0  0  0
    0.4860   -0.3415    2.9224 C   0  0  0  0  0  0  0  0  0  0  0  0
   -1.0340   -0.3415    2.9224 C   0  0  0  0  0  0  0  0  0  0  0  0
   -1.5406   -1.6444    3.5191 C   0  0  0  0  0  0  0  0  0  0  0  0
   -1.0340   -1.7791    4.9458 C   0  0  0  0  0  0  0  0  0  0  0  0
    0.9927   -0.4762    4.3491 C   0  0  0  0  0  0  0  0  0  0  0  0
    1.7234    0.4337    4.8525 O   0  0  0  0  0  0  0  0  0  0  0  0
    0.6497   -1.6186    5.1195 O   0  0  0  0  0  0  0  0  0  0  0  0
    0.6361    0.7503    0.6532 H   0  0  0  0  0  0  0  0  0  0  0  0
    0.6361    0.0227   -0.9354 H   0  0  0  0  0  0  0  0  0  0  0  0
    2.0627   -0.0721    0.0689 H   0  0  0  0  0  0  0  0  0  0  0  0
   -0.5839   -1.3750    0.6656 H   0  0  0  0  0  0  0  0  0  0  0  0
    0.8427   -2.1974    0.0813 H   0  0  0  0  0  0  0  0  0  0  0  0
    0.6360   -2.4269    2.5124 H   0  0  0  0  0  0  0  0  0  0  0  0
    2.0627   -1.5097    2.0924 H   0  0  0  0  0  0  0  0  0  0  0  0
    0.8427    0.5757    2.5023 H   0  0  0  0  0  0  0  0  0  0  0  0
   -1.3906    0.4809    3.5066 H   0  0  0  0  0  0  0  0  0  0  0  0
   -1.3906   -0.2467    1.9180 H   0  0  0  0  0  0  0  0  0  0  0  0
   -2.6106   -1.6444    3.5191 H   0  0  0  0  0  0  0  0  0  0  0  0
   -1.1840   -2.4668    2.9348 H   0  0  0  0  0  0  0  0  0  0  0  0
   -1.3906   -0.9567    5.5301 H   0  0  0  0  0  0  0  0  0  0  0  0
   -1.3906   -2.6963    5.3659 H   0  0  0  0  0  0  0  0  0  0  0  0
    0.0360   -1.7791    4.9458 H   0  0  0  0  0  0  0  0  0  0  0  0
    0.9830   -1.7073    6.0581 H   0  0  0  0  0  0  0  0  0  0  0  0
  1  2  1  0  0  0  0
  1 11  1  0  0  0  0
  1 12  1  0  0  0  0
  1 13  1  0  0  0  0
  2  3  1  0  0  0  0
  2 14  1  0  0  0  0
  2 15  1  0  0  0  0
  3  4  1  0  0  0  0
  3 16  1  0  0  0  0
  3 17  1  0  0  0  0
  4  5  1  0  0  0  0
  4  8  1  0  0  0  0
  4 18  1  0  0  0  0
  5  6  1  0  0  0  0
  5 19  1  0  0  0  0
  5 20  1  0  0  0  0
  6  7  1  0  0  0  0
  6 21  1  0  0  0  0
  6 22  1  0  0  0  0
  7 23  1  0  0  0  0
  7 24  1  0  0  0  0
  7 25  1  0  0  0  0
  8  9  2  0  0  0  0
  8 10  1  0  0  0  0
 10 26  1  0  0  0  0
M  END
