
 OpenBabel03132514253D

 80 83  0  0  0  0  0  0  0  0999 V2000
    0.9452    0.0670   -0.0500 C   0  0  0  0  0  0  0  0  0  0  0  0
    0.4385   -1.2790    0.4418 C   0  0  0  0  0  0  0  0  0  0  0  0
   -0.9326   -0.6196    0.2756 O   0  0  0  0  0  0  0  0  0  0  0  0
   -1.1222   -0.2545   -1.0931 C   0  0  0  0  0  0  0  0  0  0  0  0
   -0.0367    0.5903   -1.4459 O   0  0  0  0  0  0  0  0  0  0  0  0
    1.1834   -0.1219   -1.3027 C   0  0  0  0  0  0  0  0  0  0  0  0
    1.3725   -0.8615    0.0238 C   0  0  0  0  0  0  0  0  0  0  0  0
    2.3120   -1.9121   -0.1495 O   0  0  0  0  0  0  0  0  0  0  0  0
    0.1210   -1.4062    0.4476 C   0  0  0  0  0  0  0  0  0  0  0  0
   -0.7927   -0.3219    0.5246 O   0  0  0  0  0  0  0  0  0  0  0  0
   -0.9352    0.2691   -0.7587 C   0  0  0  0  0  0  0  0  0  0  0  0
    0.4156    0.7776   -1.2352 C   0  0  0  0  0  0  0  0  0  0  0  0
    1.3936   -0.3830   -1.3176 C   0  0  0  0  0  0  0  0  0  0  0  0
    0.9141   -1.6972   -1.3009 C   0  0  0  0  0  0  0  0  0  0  0  0
    1.8491   -2.7440   -1.3692 C   0  0  0  0  0  0  0  0  0  0  0  0
    3.2069   -2.4912   -1.4718 C   0  0  0  0  0  0  0  0  0  0  0  0
    4.1402   -3.4877   -1.5299 O   0  0  0  0  0  0  0  0  0  0  0  0
    3.6658   -1.1715   -1.4928 C   0  0  0  0  0  0  0  0  0  0  0  0
    4.9844   -0.8713   -1.6324 O   0  0  0  0  0  0  0  0  0  0  0  0
    2.7514   -0.1363   -1.4092 C   0  0  0  0  0  0  0  0  0  0  0  0
   -0.4402   -2.3543   -0.4622 O   0  0  0  0  0  0  0  0  0  0  0  0
   -0.7027   -1.6751   -1.8083 C   0  0  0  0  0  0  0  0  0  0  0  0
   -1.7218   -0.5617   -1.6293 C   0  0  0  0  0  0  0  0  0  0  0  0
   -1.9609    0.0669   -2.8799 O   0  0  0  0  0  0  0  0  0  0  0  0
    0.6097   -1.0916   -2.3411 C   0  0  0  0  0  0  0  0  0  0  0  0
    0.3684   -0.4023   -3.5589 O   0  0  0  0  0  0  0  0  0  0  0  0
   -0.5296    0.6973   -3.5864 C   0  0  0  0  0  0  0  0  0  0  0  0
   -1.1174    1.0645   -2.5211 O   0  0  0  0  0  0  0  0  0  0  0  0
   -0.7879    1.4353   -4.8899 C   0  0  0  0  0  0  0  0  0  0  0  0
   -0.1587    1.0423   -6.0302 C   0  0  0  0  0  0  0  0  0  0  0  0
   -0.4170    1.7802   -7.3337 C   0  0  0  0  0  0  0  0  0  0  0  0
   -0.4224    3.1791   -7.3167 C   0  0  0  0  0  0  0  0  0  0  0  0
   -0.5264    3.8556   -8.5439 C   0  0  0  0  0  0  0  0  0  0  0  0
   -0.6006    3.1658   -9.7426 C   0  0  0  0  0  0  0  0  0  0  0  0
   -0.7124    3.7956  -10.9501 O   0  0  0  0  0  0  0  0  0  0  0  0
   -0.5878    1.7685   -9.7391 C   0  0  0  0  0  0  0  0  0  0  0  0
   -0.6181    1.0466  -10.8908 O   0  0  0  0  0  0  0  0  0  0  0  0
   -0.5023    1.0961   -8.5327 C   0  0  0  0  0  0  0  0  0  0  0  0
   -1.0970   -1.3583   -1.9999 C   0  0  0  0  0  0  0  0  0  0  0  0
   -1.3201   -0.8905   -3.3219 O   0  0  0  0  0  0  0  0  0  0  0  0
    0.2675   -2.0476   -1.9257 C   0  0  0  0  0  0  0  0  0  0  0  0
    1.2828   -1.1424   -2.3333 O   0  0  0  0  0  0  0  0  0  0  0  0
    0.5258   -2.4967   -0.4841 C   0  0  0  0  0  0  0  0  0  0  0  0
    1.8167   -3.0805   -0.3879 O   0  0  0  0  0  0  0  0  0  0  0  0
    0.5885    0.8406    0.5974 H   0  0  0  0  0  0  0  0  0  0  0  0
    0.5885    0.2409   -1.0437 H   0  0  0  0  0  0  0  0  0  0  0  0
    2.0152    0.0670   -0.0500 H   0  0  0  0  0  0  0  0  0  0  0  0
    0.8659   -1.7200    1.3180 H   0  0  0  0  0  0  0  0  0  0  0  0
   -2.0707    0.2325   -1.1828 H   0  0  0  0  0  0  0  0  0  0  0  0
    2.1172    0.3951   -1.3769 H   0  0  0  0  0  0  0  0  0  0  0  0
    1.7337   -0.1790    0.7645 H   0  0  0  0  0  0  0  0  0  0  0  0
    1.9747   -2.5501   -0.8416 H   0  0  0  0  0  0  0  0  0  0  0  0
    0.2673   -1.8909    1.3902 H   0  0  0  0  0  0  0  0  0  0  0  0
   -1.3050   -0.4607   -1.4483 H   0  0  0  0  0  0  0  0  0  0  0  0
   -1.6237    1.0861   -0.7006 H   0  0  0  0  0  0  0  0  0  0  0  0
    0.3082    1.2229   -2.2021 H   0  0  0  0  0  0  0  0  0  0  0  0
    0.7855    1.5074   -0.5455 H   0  0  0  0  0  0  0  0  0  0  0  0
   -0.1347   -1.8995   -1.2379 H   0  0  0  0  0  0  0  0  0  0  0  0
    1.5051   -3.7568   -1.3414 H   0  0  0  0  0  0  0  0  0  0  0  0
    3.8510   -4.4449   -1.5171 H   0  0  0  0  0  0  0  0  0  0  0  0
    5.6605   -1.6054   -1.6946 H   0  0  0  0  0  0  0  0  0  0  0  0
    3.1016    0.8748   -1.4154 H   0  0  0  0  0  0  0  0  0  0  0  0
   -1.0835   -2.3936   -2.5037 H   0  0  0  0  0  0  0  0  0  0  0  0
   -2.6366   -0.9722   -1.2558 H   0  0  0  0  0  0  0  0  0  0  0  0
   -1.3443    0.1590   -0.9343 H   0  0  0  0  0  0  0  0  0  0  0  0
   -1.1059    0.4505   -3.2290 H   0  0  0  0  0  0  0  0  0  0  0  0
    1.3084   -1.8827   -2.5175 H   0  0  0  0  0  0  0  0  0  0  0  0
   -1.4646    2.2638   -4.9106 H   0  0  0  0  0  0  0  0  0  0  0  0
    0.5180    0.2137   -6.0095 H   0  0  0  0  0  0  0  0  0  0  0  0
   -0.3493    3.7185   -6.3955 H   0  0  0  0  0  0  0  0  0  0  0  0
   -0.5488    4.9254   -8.5526 H   0  0  0  0  0  0  0  0  0  0  0  0
   -0.7252    4.7946  -10.9938 H   0  0  0  0  0  0  0  0  0  0  0  0
   -0.6797    1.5143  -11.7725 H   0  0  0  0  0  0  0  0  0  0  0  0
   -0.5022    0.0261   -8.5274 H   0  0  0  0  0  0  0  0  0  0  0  0
   -1.8639   -2.0557   -1.7345 H   0  0  0  0  0  0  0  0  0  0  0  0
   -0.6034   -0.2388   -3.5703 H   0  0  0  0  0  0  0  0  0  0  0  0
    0.2739   -2.8998   -2.5728 H   0  0  0  0  0  0  0  0  0  0  0  0
    1.2797   -0.3446   -1.7304 H   0  0  0  0  0  0  0  0  0  0  0  0
   -0.2091   -3.2194   -0.1965 H   0  0  0  0  0  0  0  0  0  0  0  0
    2.5072   -2.4086   -0.6558 H   0  0  0  0  0  0  0  0  0  0  0  0
  1  2  1  0  0  0  0
  1 45  1  0  0  0  0
  1 46  1  0  0  0  0
  1 47  1  0  0  0  0
  2  3  1  0  0  0  0
  2 43  1  0  0  0  0
  2 48  1  0  0  0  0
  3  4  1  0  0  0  0
  4  5  1  0  0  0  0
  4 39  1  0  0  0  0
  4 49  1  0  0  0  0
  5  6  1  0  0  0  0
  6  7  1  0  0  0  0
  6 25  1  0  0  0  0
  6 50  1  0  0  0  0
  7  8  1  0  0  0  0
  7  9  1  0  0  0  0
  7 51  1  0  0  0  0
  8 52  1  0  0  0  0
  9 10  1  0  0  0  0
  9 21  1  0  0  0  0
  9 53  1  0  0  0  0
 10 11  1  0  0  0  0
 11 12  1  0  0  0  0
 11 54  1  0  0  0  0
 11 55  1  0  0  0  0
 12 13  1  0  0  0  0
 12 56  1  0  0  0  0
 12 57  1  0  0  0  0
 13 14  1  0  0  0  0
 13 20  2  0  0  0  0
 14 15  2  0  0  0  0
 14 58  1  0  0  0  0
 15 16  1  0  0  0  0
 15 59  1  0  0  0  0
 16 17  1  0  0  0  0
 16 18  2  0  0  0  0
 17 60  1  0  0  0  0
 18 19  1  0  0  0  0
 18 20  1  0  0  0  0
 19 61  1  0  0  0  0
 20 62  1  0  0  0  0
 21 22  1  0  0  0  0
 22 23  1  0  0  0  0
 22 25  1  0  0  0  0
 22 63  1  0  0  0  0
 23 24  1  0  0  0  0
 23 64  1  0  0  0  0
 23 65  1  0  0  0  0
 24 66  1  0  0  0  0
 25 26  1  0  0  0  0
 25 67  1  0  0  0  0
 26 27  1  0  0  0  0
 27 28  2  0  0  0  0
 27 29  1  0  0  0  0
 29 30  2  0  0  0  0
 29 68  1  0  0  0  0
 30 31  1  0  0  0  0
 30 69  1  0  0  0  0
 31 32  1  0  0  0  0
 31 38  2  0  0  0  0
 32 33  2  0  0  0  0
 32 70  1  0  0  0  0
 33 34  1  0  0  0  0
 33 71  1  0  0  0  0
 34 35  1  0  0  0  0
 34 36  2  0  0  0  0
 35 72  1  0  0  0  0
 36 37  1  0  0  0  0
 36 38  1  0  0  0  0
 37 73  1  0  0  0  0
 38 74  1  0  0  0  0
 39 40  1  0  0  0  0
 39 41  1  0  0  0  0
 39 75  1  0  0  0  0
 40 76  1  0  0  0  0
 41 42  1  0  0  0  0
 41 43  1  0  0  0  0
 41 77  1  0  0  0  0
 42 78  1  0  0  0  0
 43 44  1  0  0  0  0
 43 79  1  0  0  0  0
 44 80  1  0  0  0  0
M  END
