REMARK  Name = 
REMARK  21 active torsions:
REMARK  status: ('A' for Active; 'I' for Inactive)
REMARK    1  A    between atoms: C_1  and  C_2
REMARK    2  A    between atoms: C_4  and  O_5
REMARK    3  A    between atoms: O_5  and  C_6
REMARK    4  A    between atoms: C_7  and  O_8
REMARK    5  A    between atoms: C_9  and  O_10
REMARK    6  A    between atoms: O_10  and  C_11
REMARK    7  A    between atoms: C_11  and  C_12
REMARK    8  A    between atoms: C_12  and  C_13
REMARK    9  A    between atoms: C_16  and  O_17
REMARK   10  A    between atoms: C_18  and  O_19
REMARK   11  A    between atoms: C_22  and  C_23
REMARK   12  A    between atoms: C_23  and  O_24
REMARK   13  A    between atoms: C_25  and  O_26
REMARK   14  A    between atoms: O_26  and  C_27
REMARK   15  A    between atoms: C_27  and  C_29
REMARK   16  A    between atoms: C_30  and  C_31
REMARK   17  A    between atoms: C_34  and  O_35
REMARK   18  A    between atoms: C_36  and  O_37
REMARK   19  A    between atoms: C_39  and  O_40
REMARK   20  A    between atoms: C_41  and  O_42
REMARK   21  A    between atoms: C_43  and  O_44
REMARK                            x       y       z     vdW  Elec       q    Type
REMARK                         _______ _______ _______ _____ _____    ______ ____
ROOT
ATOM      1  C   UNL     1       2.038   0.784  -1.216  0.00  0.00    +0.000 C 
ATOM      2  C   UNL     1       1.523   1.063   0.198  0.00  0.00    +0.000 C 
ATOM      3  C   UNL     1       0.235   1.677   0.123  0.00  0.00    +0.000 C 
ATOM      4  O   UNL     1      -0.759   0.871  -0.513  0.00  0.00    +0.000 OA
ATOM      5  C   UNL     1      -0.336   0.584  -1.955  0.00  0.00    +0.000 C 
ATOM      6  C   UNL     1       1.031  -0.107  -1.950  0.00  0.00    +0.000 C 
ENDROOT
BRANCH   2   7
ATOM      7  O   UNL     1       1.425  -0.158   0.916  0.00  0.00    +0.000 OA
ATOM      8  H   UNL     1       0.790  -0.771   0.445  0.00  0.00    +0.000 HD
ENDBRANCH   2   7
BRANCH   5   9
ATOM      9  C   UNL     1      -0.247   1.888  -2.731  0.00  0.00    +0.000 C 
BRANCH   9  10
ATOM     10  O   UNL     1       0.147   1.618  -4.068  0.00  0.00    +0.000 OA
ATOM     11  H   UNL     1       1.040   1.169  -4.068  0.00  0.00    +0.000 HD
ENDBRANCH   9  10
ENDBRANCH   5   9
BRANCH   6  12
ATOM     12  O   UNL     1       1.465  -0.320  -3.285  0.00  0.00    +0.000 OA
BRANCH  12  13
ATOM     13  C   UNL     1       1.644   0.784  -4.159  0.00  0.00    +0.000 C 
ATOM     14  O   UNL     1       1.416   1.965  -3.746  0.00  0.00    +0.000 OA
BRANCH  13  15
ATOM     15  C   UNL     1       2.109   0.556  -5.588  0.00  0.00    +0.000 C 
ATOM     16  C   UNL     1       2.353  -0.708  -6.030  0.00  0.00    +0.000 C 
BRANCH  16  17
ATOM     17  C   UNL     1       2.817  -0.936  -7.459  0.00  0.00    +0.000 A 
ATOM     18  C   UNL     1       3.821  -0.123  -7.997  0.00  0.00    +0.000 A 
ATOM     19  C   UNL     1       4.248  -0.382  -9.311  0.00  0.00    +0.000 A 
ATOM     20  C   UNL     1       3.713  -1.422 -10.051  0.00  0.00    +0.000 A 
ATOM     21  C   UNL     1       2.715  -2.227  -9.494  0.00  0.00    +0.000 A 
ATOM     22  C   UNL     1       2.278  -1.967  -8.207  0.00  0.00    +0.000 A 
BRANCH  21  23
ATOM     23  O   UNL     1       2.187  -3.284 -10.165  0.00  0.00    +0.000 OA
ATOM     24  H   UNL     1       2.490  -3.488 -11.096  0.00  0.00    +0.000 HD
ENDBRANCH  21  23
BRANCH  20  25
ATOM     25  O   UNL     1       4.101  -1.691 -11.334  0.00  0.00    +0.000 OA
ATOM     26  H   UNL     1       4.812  -1.138 -11.767  0.00  0.00    +0.000 HD
ENDBRANCH  20  25
ENDBRANCH  16  17
ENDBRANCH  13  15
ENDBRANCH  12  13
ENDBRANCH   6  12
BRANCH   3  27
ATOM     27  O   UNL     1       0.384   2.845  -0.670  0.00  0.00    +0.000 OA
BRANCH  27  28
ATOM     28  C   UNL     1       0.820   2.481  -1.972  0.00  0.00    +0.000 C 
BRANCH  28  29
ATOM     29  C   UNL     1       2.155   1.761  -1.876  0.00  0.00    +0.000 C 
BRANCH  29  30
ATOM     30  C   UNL     1       1.995   0.510  -1.026  0.00  0.00    +0.000 A 
ATOM     31  C   UNL     1       1.764   0.610   0.350  0.00  0.00    +0.000 A 
ATOM     32  C   UNL     1       1.749  -0.575   1.106  0.00  0.00    +0.000 A 
ATOM     33  C   UNL     1       1.935  -1.811   0.511  0.00  0.00    +0.000 A 
ATOM     34  C   UNL     1       2.159  -1.890  -0.866  0.00  0.00    +0.000 A 
ATOM     35  C   UNL     1       2.192  -0.726  -1.614  0.00  0.00    +0.000 A 
BRANCH  33  36
ATOM     36  O   UNL     1       1.936  -2.979   1.221  0.00  0.00    +0.000 OA
ATOM     37  H   UNL     1       1.779  -2.963   2.208  0.00  0.00    +0.000 HD
ENDBRANCH  33  36
BRANCH  34  38
ATOM     38  O   UNL     1       2.308  -3.082  -1.503  0.00  0.00    +0.000 OA
ATOM     39  H   UNL     1       2.287  -3.934  -0.980  0.00  0.00    +0.000 HD
ENDBRANCH  34  38
ENDBRANCH  29  30
ENDBRANCH  28  29
ENDBRANCH  27  28
ENDBRANCH   3  27
BRANCH   1  40
ATOM     40  O   UNL     1       2.161   2.102  -1.731  0.00  0.00    +0.000 OA
BRANCH  40  44
ATOM     41  C   UNL     1       1.045  -0.022   0.086  0.00  0.00    +0.000 C 
ATOM     42  C   UNL     1       0.539   1.394   0.306  0.00  0.00    +0.000 C 
ATOM     43  O   UNL     1       0.551   2.812  -0.271  0.00  0.00    +0.000 OA
ATOM     44  C   UNL     1       0.905   2.759  -1.654  0.00  0.00    +0.000 C 
ATOM     45  C   UNL     1      -0.004   2.007  -2.461  0.00  0.00    +0.000 C 
ATOM     46  C   UNL     1      -0.038   0.557  -1.972  0.00  0.00    +0.000 C 
ATOM     47  C   UNL     1      -0.444   0.534  -0.495  0.00  0.00    +0.000 C 
BRANCH  47  48
ATOM     48  O   UNL     1      -0.417  -0.801  -0.012  0.00  0.00    +0.000 OA
ATOM     49  H   UNL     1       0.506  -1.172  -0.109  0.00  0.00    +0.000 HD
ENDBRANCH  47  48
BRANCH  46  50
ATOM     50  O   UNL     1       1.246  -0.029  -2.124  0.00  0.00    +0.000 OA
ATOM     51  H   UNL     1       1.914   0.487  -1.587  0.00  0.00    +0.000 HD
ENDBRANCH  46  50
BRANCH  45  52
ATOM     52  O   UNL     1       0.425   2.041  -3.814  0.00  0.00    +0.000 OA
ATOM     53  H   UNL     1       1.340   1.644  -3.884  0.00  0.00    +0.000 HD
ENDBRANCH  45  52
ENDBRANCH  40  44
ENDBRANCH   1  40
TORSDOF 20
