REMARK  Name = 
REMARK  21 active torsions:
REMARK  status: ('A' for Active; 'I' for Inactive)
REMARK    1  A    between atoms: C_1  and  C_2
REMARK    2  A    between atoms: C_4  and  O_5
REMARK    3  A    between atoms: O_5  and  C_6
REMARK    4  A    between atoms: C_7  and  O_8
REMARK    5  A    between atoms: C_9  and  O_10
REMARK    6  A    between atoms: O_10  and  C_11
REMARK    7  A    between atoms: C_11  and  C_12
REMARK    8  A    between atoms: C_12  and  C_13
REMARK    9  A    between atoms: C_16  and  O_17
REMARK   10  A    between atoms: C_18  and  O_19
REMARK   11  A    between atoms: C_22  and  C_23
REMARK   12  A    between atoms: C_23  and  O_24
REMARK   13  A    between atoms: C_25  and  O_26
REMARK   14  A    between atoms: O_26  and  C_27
REMARK   15  A    between atoms: C_27  and  C_29
REMARK   16  A    between atoms: C_30  and  C_31
REMARK   17  A    between atoms: C_34  and  O_35
REMARK   18  A    between atoms: C_36  and  O_37
REMARK   19  A    between atoms: C_39  and  O_40
REMARK   20  A    between atoms: C_41  and  O_42
REMARK   21  A    between atoms: C_43  and  O_44
REMARK                            x       y       z     vdW  Elec       q    Type
REMARK                         _______ _______ _______ _____ _____    ______ ____
ROOT
ATOM      1  C   UNL     1       1.183  -0.122  -1.303  0.00  0.00    +0.000 C 
ATOM      2  C   UNL     1       1.373  -0.862   0.024  0.00  0.00    +0.000 C 
ATOM      3  C   UNL     1       0.121  -1.406   0.448  0.00  0.00    +0.000 C 
ATOM      4  O   UNL     1      -0.440  -2.354  -0.462  0.00  0.00    +0.000 OA
ATOM      5  C   UNL     1      -0.703  -1.675  -1.808  0.00  0.00    +0.000 C 
ATOM      6  C   UNL     1       0.610  -1.092  -2.341  0.00  0.00    +0.000 C 
ENDROOT
BRANCH   2   7
ATOM      7  O   UNL     1       2.312  -1.912  -0.149  0.00  0.00    +0.000 OA
ATOM      8  H   UNL     1       1.975  -2.550  -0.842  0.00  0.00    +0.000 HD
ENDBRANCH   2   7
BRANCH   5   9
ATOM      9  C   UNL     1      -1.722  -0.562  -1.629  0.00  0.00    +0.000 C 
BRANCH   9  10
ATOM     10  O   UNL     1      -1.961   0.067  -2.880  0.00  0.00    +0.000 OA
ATOM     11  H   UNL     1      -1.106   0.451  -3.229  0.00  0.00    +0.000 HD
ENDBRANCH   9  10
ENDBRANCH   5   9
BRANCH   6  12
ATOM     12  O   UNL     1       0.368  -0.402  -3.559  0.00  0.00    +0.000 OA
BRANCH  12  13
ATOM     13  C   UNL     1      -0.530   0.697  -3.586  0.00  0.00    +0.000 C 
ATOM     14  O   UNL     1      -1.117   1.065  -2.521  0.00  0.00    +0.000 OA
BRANCH  13  15
ATOM     15  C   UNL     1      -0.788   1.435  -4.890  0.00  0.00    +0.000 C 
ATOM     16  C   UNL     1      -0.159   1.042  -6.030  0.00  0.00    +0.000 C 
BRANCH  16  17
ATOM     17  C   UNL     1      -0.417   1.780  -7.334  0.00  0.00    +0.000 A 
ATOM     18  C   UNL     1      -0.422   3.179  -7.317  0.00  0.00    +0.000 A 
ATOM     19  C   UNL     1      -0.526   3.856  -8.544  0.00  0.00    +0.000 A 
ATOM     20  C   UNL     1      -0.601   3.166  -9.743  0.00  0.00    +0.000 A 
ATOM     21  C   UNL     1      -0.588   1.768  -9.739  0.00  0.00    +0.000 A 
ATOM     22  C   UNL     1      -0.502   1.096  -8.533  0.00  0.00    +0.000 A 
BRANCH  21  23
ATOM     23  O   UNL     1      -0.618   1.047 -10.891  0.00  0.00    +0.000 OA
ATOM     24  H   UNL     1      -0.680   1.514 -11.773  0.00  0.00    +0.000 HD
ENDBRANCH  21  23
BRANCH  20  25
ATOM     25  O   UNL     1      -0.712   3.796 -10.950  0.00  0.00    +0.000 OA
ATOM     26  H   UNL     1      -0.725   4.795 -10.994  0.00  0.00    +0.000 HD
ENDBRANCH  20  25
ENDBRANCH  16  17
ENDBRANCH  13  15
ENDBRANCH  12  13
ENDBRANCH   6  12
BRANCH   3  27
ATOM     27  O   UNL     1      -0.793  -0.322   0.525  0.00  0.00    +0.000 OA
BRANCH  27  28
ATOM     28  C   UNL     1      -0.935   0.269  -0.759  0.00  0.00    +0.000 C 
BRANCH  28  29
ATOM     29  C   UNL     1       0.416   0.778  -1.235  0.00  0.00    +0.000 C 
BRANCH  29  30
ATOM     30  C   UNL     1       1.394  -0.383  -1.318  0.00  0.00    +0.000 A 
ATOM     31  C   UNL     1       0.914  -1.697  -1.301  0.00  0.00    +0.000 A 
ATOM     32  C   UNL     1       1.849  -2.744  -1.369  0.00  0.00    +0.000 A 
ATOM     33  C   UNL     1       3.207  -2.491  -1.472  0.00  0.00    +0.000 A 
ATOM     34  C   UNL     1       3.666  -1.171  -1.493  0.00  0.00    +0.000 A 
ATOM     35  C   UNL     1       2.751  -0.136  -1.409  0.00  0.00    +0.000 A 
BRANCH  33  36
ATOM     36  O   UNL     1       4.140  -3.488  -1.530  0.00  0.00    +0.000 OA
ATOM     37  H   UNL     1       3.851  -4.445  -1.517  0.00  0.00    +0.000 HD
ENDBRANCH  33  36
BRANCH  34  38
ATOM     38  O   UNL     1       4.984  -0.871  -1.632  0.00  0.00    +0.000 OA
ATOM     39  H   UNL     1       5.660  -1.605  -1.695  0.00  0.00    +0.000 HD
ENDBRANCH  34  38
ENDBRANCH  29  30
ENDBRANCH  28  29
ENDBRANCH  27  28
ENDBRANCH   3  27
BRANCH   1  40
ATOM     40  O   UNL     1      -0.037   0.590  -1.446  0.00  0.00    +0.000 OA
BRANCH  40  44
ATOM     41  C   UNL     1       0.945   0.067  -0.050  0.00  0.00    +0.000 C 
ATOM     42  C   UNL     1       0.439  -1.279   0.442  0.00  0.00    +0.000 C 
ATOM     43  O   UNL     1      -0.933  -0.620   0.276  0.00  0.00    +0.000 OA
ATOM     44  C   UNL     1      -1.122  -0.255  -1.093  0.00  0.00    +0.000 C 
ATOM     45  C   UNL     1      -1.097  -1.358  -2.000  0.00  0.00    +0.000 C 
ATOM     46  C   UNL     1       0.268  -2.048  -1.926  0.00  0.00    +0.000 C 
ATOM     47  C   UNL     1       0.526  -2.497  -0.484  0.00  0.00    +0.000 C 
BRANCH  47  48
ATOM     48  O   UNL     1       1.817  -3.080  -0.388  0.00  0.00    +0.000 OA
ATOM     49  H   UNL     1       2.507  -2.409  -0.656  0.00  0.00    +0.000 HD
ENDBRANCH  47  48
BRANCH  46  50
ATOM     50  O   UNL     1       1.283  -1.142  -2.333  0.00  0.00    +0.000 OA
ATOM     51  H   UNL     1       1.280  -0.345  -1.730  0.00  0.00    +0.000 HD
ENDBRANCH  46  50
BRANCH  45  52
ATOM     52  O   UNL     1      -1.320  -0.890  -3.322  0.00  0.00    +0.000 OA
ATOM     53  H   UNL     1      -0.603  -0.239  -3.570  0.00  0.00    +0.000 HD
ENDBRANCH  45  52
ENDBRANCH  40  44
ENDBRANCH   1  40
TORSDOF 20
