
 OpenBabel03132512093D

 72 74  0  0  0  0  0  0  0  0999 V2000
    0.9483   -0.0066   -0.0853 C   0  0  0  0  0  0  0  0  0  0  0  0
    0.2681   -0.7502   -0.9991 C   0  0  0  0  0  0  0  0  0  0  0  0
    0.9088   -1.6707   -2.0405 C   0  0  0  0  0  0  0  0  0  0  0  0
    0.4481   -3.0088   -1.8406 C   0  0  0  0  0  0  0  0  0  0  0  0
   -0.9648   -3.1663   -1.9833 C   0  0  0  0  0  0  0  0  0  0  0  0
   -1.3111   -4.5300   -1.7919 O   0  0  0  0  0  0  0  0  0  0  0  0
   -1.6813   -2.3062   -0.9396 C   0  0  0  0  0  0  0  0  0  0  0  0
   -1.2568   -0.8449   -1.1155 C   0  0  0  0  0  0  0  0  0  0  0  0
   -2.0981    0.2005   -1.3390 C   0  0  0  0  0  0  0  0  0  0  0  0
   -3.5966   -0.0365   -1.4324 C   0  0  0  0  0  0  0  0  0  0  0  0
   -4.4380    1.0089   -1.6559 C   0  0  0  0  0  0  0  0  0  0  0  0
   -4.1671    2.5148   -1.6208 C   0  0  0  0  0  0  0  0  0  0  0  0
   -4.7232    3.1256   -2.7871 C   0  0  0  0  0  0  0  0  0  0  0  0
   -6.1394    2.9768   -2.9042 C   0  0  0  0  0  0  0  0  0  0  0  0
   -6.4901    1.4896   -2.9911 C   0  0  0  0  0  0  0  0  0  0  0  0
   -7.9998    1.3258   -3.0553 C   0  0  0  0  0  0  0  0  0  0  0  0
   -5.9489    0.7724   -1.7504 C   0  0  0  0  0  0  0  0  0  0  0  0
   -7.7266   -0.7487   -4.3813 C   0  0  0  0  0  0  0  0  0  0  0  0
   -6.2163   -0.5876   -4.3221 C   0  0  0  0  0  0  0  0  0  0  0  0
   -5.8672    0.8896   -4.2411 C   0  0  0  0  0  0  0  0  0  0  0  0
   -6.4054    1.6055   -5.4691 C   0  0  0  0  0  0  0  0  0  0  0  0
   -6.0563    3.0827   -5.3881 C   0  0  0  0  0  0  0  0  0  0  0  0
   -5.7825    1.0055   -6.7191 C   0  0  0  0  0  0  0  0  0  0  0  0
   -6.1316   -0.4716   -6.8001 C   0  0  0  0  0  0  0  0  0  0  0  0
   -7.6419   -0.6328   -6.8593 C   0  0  0  0  0  0  0  0  0  0  0  0
   -8.1801    0.0831   -8.0873 C   0  0  0  0  0  0  0  0  0  0  0  0
   -7.5572   -0.5169   -9.3373 C   0  0  0  0  0  0  0  0  0  0  0  0
   -9.6904   -0.0780   -8.1465 C   0  0  0  0  0  0  0  0  0  0  0  0
    0.4133    0.5783    0.6334 H   0  0  0  0  0  0  0  0  0  0  0  0
    2.0183   -0.0066   -0.0853 H   0  0  0  0  0  0  0  0  0  0  0  0
    0.6373   -1.3427   -3.0221 H   0  0  0  0  0  0  0  0  0  0  0  0
    1.9733   -1.6407   -1.9364 H   0  0  0  0  0  0  0  0  0  0  0  0
    0.6874   -3.2701   -0.8310 H   0  0  0  0  0  0  0  0  0  0  0  0
    0.9307   -3.6409   -2.5564 H   0  0  0  0  0  0  0  0  0  0  0  0
   -1.2609   -2.8577   -2.9641 H   0  0  0  0  0  0  0  0  0  0  0  0
   -1.0344   -4.8187   -0.8753 H   0  0  0  0  0  0  0  0  0  0  0  0
   -1.4211   -2.6410    0.0428 H   0  0  0  0  0  0  0  0  0  0  0  0
   -2.7398   -2.3900   -1.0721 H   0  0  0  0  0  0  0  0  0  0  0  0
   -1.7050    1.1896   -1.4490 H   0  0  0  0  0  0  0  0  0  0  0  0
   -3.9897   -1.0256   -1.3224 H   0  0  0  0  0  0  0  0  0  0  0  0
   -4.6171    2.9381   -0.7472 H   0  0  0  0  0  0  0  0  0  0  0  0
   -3.1113    2.6869   -1.5969 H   0  0  0  0  0  0  0  0  0  0  0  0
   -4.2900    2.6307   -3.6311 H   0  0  0  0  0  0  0  0  0  0  0  0
   -4.4962    4.1709   -2.7598 H   0  0  0  0  0  0  0  0  0  0  0  0
   -6.4789    3.4759   -3.7877 H   0  0  0  0  0  0  0  0  0  0  0  0
   -6.6153    3.4061   -2.0473 H   0  0  0  0  0  0  0  0  0  0  0  0
   -8.4418    1.7449   -2.1756 H   0  0  0  0  0  0  0  0  0  0  0  0
   -8.3770    1.8316   -3.9195 H   0  0  0  0  0  0  0  0  0  0  0  0
   -8.2435    0.2857   -3.1161 H   0  0  0  0  0  0  0  0  0  0  0  0
   -6.4278    1.1590   -0.8752 H   0  0  0  0  0  0  0  0  0  0  0  0
   -7.9723   -1.7886   -4.4383 H   0  0  0  0  0  0  0  0  0  0  0  0
   -8.1651   -0.3264   -3.5014 H   0  0  0  0  0  0  0  0  0  0  0  0
   -5.7778   -1.0100   -5.2020 H   0  0  0  0  0  0  0  0  0  0  0  0
   -5.8374   -1.0916   -3.4576 H   0  0  0  0  0  0  0  0  0  0  0  0
   -4.8040    1.0030   -4.1995 H   0  0  0  0  0  0  0  0  0  0  0  0
   -7.4686    1.4921   -5.5108 H   0  0  0  0  0  0  0  0  0  0  0  0
   -4.9931    3.1961   -5.3465 H   0  0  0  0  0  0  0  0  0  0  0  0
   -6.4352    3.5867   -6.2526 H   0  0  0  0  0  0  0  0  0  0  0  0
   -6.4948    3.5050   -4.5082 H   0  0  0  0  0  0  0  0  0  0  0  0
   -6.1614    1.5095   -7.5836 H   0  0  0  0  0  0  0  0  0  0  0  0
   -4.7193    1.1190   -6.6775 H   0  0  0  0  0  0  0  0  0  0  0  0
   -5.6931   -0.8940   -7.6800 H   0  0  0  0  0  0  0  0  0  0  0  0
   -5.7527   -0.9756   -5.9356 H   0  0  0  0  0  0  0  0  0  0  0  0
   -7.8877   -1.6726   -6.9163 H   0  0  0  0  0  0  0  0  0  0  0  0
   -8.0804   -0.2104   -5.9794 H   0  0  0  0  0  0  0  0  0  0  0  0
   -7.9344    1.1230   -8.0303 H   0  0  0  0  0  0  0  0  0  0  0  0
   -7.8030   -1.5567   -9.3943 H   0  0  0  0  0  0  0  0  0  0  0  0
   -7.9361   -0.0129  -10.2017 H   0  0  0  0  0  0  0  0  0  0  0  0
   -6.4941   -0.4034   -9.2956 H   0  0  0  0  0  0  0  0  0  0  0  0
  -10.1289    0.3444   -7.2666 H   0  0  0  0  0  0  0  0  0  0  0  0
  -10.0693    0.4260   -9.0109 H   0  0  0  0  0  0  0  0  0  0  0  0
   -9.9362   -1.1179   -8.2035 H   0  0  0  0  0  0  0  0  0  0  0  0
  1  2  2  0  0  0  0
  1 29  1  0  0  0  0
  1 30  1  0  0  0  0
  2  3  1  0  0  0  0
  2  8  1  0  0  0  0
  3  4  1  0  0  0  0
  3 31  1  0  0  0  0
  3 32  1  0  0  0  0
  4  5  1  0  0  0  0
  4 33  1  0  0  0  0
  4 34  1  0  0  0  0
  5  6  1  0  0  0  0
  5  7  1  0  0  0  0
  5 35  1  0  0  0  0
  6 36  1  0  0  0  0
  7  8  1  0  0  0  0
  7 37  1  0  0  0  0
  7 38  1  0  0  0  0
  8  9  2  0  0  0  0
  9 10  1  0  0  0  0
  9 39  1  0  0  0  0
 10 11  2  0  0  0  0
 10 40  1  0  0  0  0
 11 12  1  0  0  0  0
 11 17  1  0  0  0  0
 12 13  1  0  0  0  0
 12 41  1  0  0  0  0
 12 42  1  0  0  0  0
 13 14  1  0  0  0  0
 13 43  1  0  0  0  0
 13 44  1  0  0  0  0
 14 15  1  0  0  0  0
 14 45  1  0  0  0  0
 14 46  1  0  0  0  0
 15 16  1  0  0  0  0
 15 17  1  0  0  0  0
 15 20  1  0  0  0  0
 16 47  1  0  0  0  0
 16 48  1  0  0  0  0
 16 49  1  0  0  0  0
 17 18  1  0  0  0  0
 17 50  1  0  0  0  0
 18 19  1  0  0  0  0
 18 51  1  0  0  0  0
 18 52  1  0  0  0  0
 19 20  1  0  0  0  0
 19 53  1  0  0  0  0
 19 54  1  0  0  0  0
 20 21  1  0  0  0  0
 20 55  1  0  0  0  0
 21 22  1  0  0  0  0
 21 23  1  0  0  0  0
 21 56  1  0  0  0  0
 22 57  1  0  0  0  0
 22 58  1  0  0  0  0
 22 59  1  0  0  0  0
 23 24  1  0  0  0  0
 23 60  1  0  0  0  0
 23 61  1  0  0  0  0
 24 25  1  0  0  0  0
 24 62  1  0  0  0  0
 24 63  1  0  0  0  0
 25 26  1  0  0  0  0
 25 64  1  0  0  0  0
 25 65  1  0  0  0  0
 26 27  1  0  0  0  0
 26 28  1  0  0  0  0
 26 66  1  0  0  0  0
 27 67  1  0  0  0  0
 27 68  1  0  0  0  0
 27 69  1  0  0  0  0
 28 70  1  0  0  0  0
 28 71  1  0  0  0  0
 28 72  1  0  0  0  0
M  END
