REMARK  Name = 
REMARK  11 active torsions:
REMARK  status: ('A' for Active; 'I' for Inactive)
REMARK    1  A    between atoms: C_5  and  O_6
REMARK    2  A    between atoms: C_9  and  C_10
REMARK    3  A    between atoms: C_15  and  C_16
REMARK    4  A    between atoms: C_20  and  C_21
REMARK    5  A    between atoms: C_21  and  C_22
REMARK    6  A    between atoms: C_21  and  C_23
REMARK    7  A    between atoms: C_23  and  C_24
REMARK    8  A    between atoms: C_24  and  C_25
REMARK    9  A    between atoms: C_25  and  C_26
REMARK   10  A    between atoms: C_26  and  C_27
REMARK   11  A    between atoms: C_26  and  C_28
REMARK                            x       y       z     vdW  Elec       q    Type
REMARK                         _______ _______ _______ _____ _____    ______ ____
ROOT
ATOM      1  C   UNL     1      -3.597  -0.036  -1.432  0.00  0.00    +0.000 C 
ATOM      2  C   UNL     1      -4.438   1.009  -1.656  0.00  0.00    +0.000 C 
ATOM      3  C   UNL     1      -4.167   2.515  -1.621  0.00  0.00    +0.000 C 
ATOM      4  C   UNL     1      -4.723   3.126  -2.787  0.00  0.00    +0.000 C 
ATOM      5  C   UNL     1      -6.139   2.977  -2.904  0.00  0.00    +0.000 C 
ATOM      6  C   UNL     1      -6.490   1.490  -2.991  0.00  0.00    +0.000 C 
ATOM      7  C   UNL     1      -8.000   1.326  -3.055  0.00  0.00    +0.000 C 
ATOM      8  C   UNL     1      -5.949   0.772  -1.750  0.00  0.00    +0.000 C 
ATOM      9  C   UNL     1      -7.727  -0.749  -4.381  0.00  0.00    +0.000 C 
ATOM     10  C   UNL     1      -6.216  -0.588  -4.322  0.00  0.00    +0.000 C 
ATOM     11  C   UNL     1      -5.867   0.890  -4.241  0.00  0.00    +0.000 C 
ENDROOT
BRANCH   1  19
ATOM     12  C   UNL     1       0.948  -0.007  -0.085  0.00  0.00    +0.000 C 
ATOM     13  C   UNL     1       0.268  -0.750  -0.999  0.00  0.00    +0.000 C 
ATOM     14  C   UNL     1       0.909  -1.671  -2.041  0.00  0.00    +0.000 C 
ATOM     15  C   UNL     1       0.448  -3.009  -1.841  0.00  0.00    +0.000 C 
ATOM     16  C   UNL     1      -0.965  -3.166  -1.983  0.00  0.00    +0.000 C 
ATOM     17  C   UNL     1      -1.681  -2.306  -0.940  0.00  0.00    +0.000 C 
ATOM     18  C   UNL     1      -1.257  -0.845  -1.115  0.00  0.00    +0.000 C 
ATOM     19  C   UNL     1      -2.098   0.201  -1.339  0.00  0.00    +0.000 C 
BRANCH  16  20
ATOM     20  O   UNL     1      -1.311  -4.530  -1.792  0.00  0.00    +0.000 OA
ATOM     21  H   UNL     1      -1.034  -4.819  -0.875  0.00  0.00    +0.000 HD
ENDBRANCH  16  20
ENDBRANCH   1  19
BRANCH  11  22
ATOM     22  C   UNL     1      -6.405   1.605  -5.469  0.00  0.00    +0.000 C 
ATOM     23  C   UNL     1      -6.056   3.083  -5.388  0.00  0.00    +0.000 C 
BRANCH  22  24
ATOM     24  C   UNL     1      -5.782   1.006  -6.719  0.00  0.00    +0.000 C 
BRANCH  24  25
ATOM     25  C   UNL     1      -6.132  -0.472  -6.800  0.00  0.00    +0.000 C 
BRANCH  25  26
ATOM     26  C   UNL     1      -7.642  -0.633  -6.859  0.00  0.00    +0.000 C 
BRANCH  26  27
ATOM     27  C   UNL     1      -8.180   0.083  -8.087  0.00  0.00    +0.000 C 
ATOM     28  C   UNL     1      -7.557  -0.517  -9.337  0.00  0.00    +0.000 C 
ATOM     29  C   UNL     1      -9.690  -0.078  -8.146  0.00  0.00    +0.000 C 
ENDBRANCH  26  27
ENDBRANCH  25  26
ENDBRANCH  24  25
ENDBRANCH  22  24
ENDBRANCH  11  22
TORSDOF 7
