REMARK  Name = 
REMARK  18 active torsions:
REMARK  status: ('A' for Active; 'I' for Inactive)
REMARK    1  A    between atoms: C_1  and  O_2
REMARK    2  A    between atoms: O_2  and  C_3
REMARK    3  A    between atoms: C_4  and  O_5
REMARK    4  A    between atoms: O_5  and  C_6
REMARK    5  A    between atoms: C_7  and  O_8
REMARK    6  A    between atoms: C_9  and  C_10
REMARK    7  A    between atoms: C_10  and  C_11
REMARK    8  A    between atoms: C_12  and  C_13
REMARK    9  A    between atoms: C_12  and  C_14
REMARK   10  A    between atoms: C_14  and  C_15
REMARK   11  A    between atoms: C_15  and  C_16
REMARK   12  A    between atoms: C_17  and  C_18
REMARK   13  A    between atoms: C_17  and  C_19
REMARK   14  A    between atoms: C_19  and  C_20
REMARK   15  A    between atoms: C_20  and  C_21
REMARK   16  A    between atoms: C_22  and  C_23
REMARK   17  A    between atoms: C_22  and  C_24
REMARK   18  A    between atoms: C_25  and  C_26
REMARK                            x       y       z     vdW  Elec       q    Type
REMARK                         _______ _______ _______ _____ _____    ______ ____
ROOT
ATOM      1  C   UNL     1       1.616  -4.789  -3.142  0.00  0.00    +0.000 C 
ENDROOT
BRANCH   1   5
ATOM      2  C   UNL     1       0.852  -2.506  -0.382  0.00  0.00    +0.000 C 
ATOM      3  C   UNL     1      -0.005  -3.542  -0.621  0.00  0.00    +0.000 C 
ATOM      4  C   UNL     1       0.460  -4.668  -1.238  0.00  0.00    +0.000 C 
ATOM      5  C   UNL     1       1.741  -4.775  -1.627  0.00  0.00    +0.000 C 
ATOM      6  C   UNL     1       2.629  -3.787  -1.425  0.00  0.00    +0.000 C 
ATOM      7  C   UNL     1       3.605  -4.398  -0.432  0.00  0.00    +0.000 C 
ATOM      8  C   UNL     1       2.250  -2.643  -0.816  0.00  0.00    +0.000 C 
ATOM      9  O   UNL     1       3.085  -1.705  -0.621  0.00  0.00    +0.000 OA
BRANCH   2  11
ATOM     10  C   UNL     1       0.983  -0.087   0.045  0.00  0.00    +0.000 C 
ATOM     11  O   UNL     1       0.509  -1.376   0.407  0.00  0.00    +0.000 OA
ENDBRANCH   2  11
BRANCH   3  12
ATOM     12  O   UNL     1      -1.367  -3.449  -0.231  0.00  0.00    +0.000 OA
ATOM     13  C   UNL     1      -1.843  -2.275   0.411  0.00  0.00    +0.000 C 
ENDBRANCH   3  12
BRANCH   4  14
ATOM     14  O   UNL     1      -0.236  -4.649  -2.476  0.00  0.00    +0.000 OA
ATOM     15  H   UNL     1       0.033  -3.838  -2.996  0.00  0.00    +0.000 HD
ENDBRANCH   4  14
ENDBRANCH   1   5
BRANCH   1  16
ATOM     16  C   UNL     1       2.989  -4.992  -3.761  0.00  0.00    +0.000 C 
ATOM     17  C   UNL     1       3.224  -6.072  -4.556  0.00  0.00    +0.000 C 
ATOM     18  C   UNL     1       4.597  -6.275  -5.175  0.00  0.00    +0.000 C 
BRANCH  17  19
ATOM     19  C   UNL     1       2.113  -7.074  -4.823  0.00  0.00    +0.000 C 
BRANCH  19  20
ATOM     20  C   UNL     1       1.649  -7.680  -3.509  0.00  0.00    +0.000 C 
BRANCH  20  21
ATOM     21  C   UNL     1       1.129  -6.578  -2.599  0.00  0.00    +0.000 C 
ATOM     22  C   UNL     1      -0.159  -6.608  -2.163  0.00  0.00    +0.000 C 
ATOM     23  C   UNL     1      -0.679  -5.507  -1.253  0.00  0.00    +0.000 C 
BRANCH  22  24
ATOM     24  C   UNL     1      -1.078  -7.742  -2.585  0.00  0.00    +0.000 C 
BRANCH  24  25
ATOM     25  C   UNL     1      -1.203  -7.756  -4.100  0.00  0.00    +0.000 C 
BRANCH  25  26
ATOM     26  C   UNL     1       0.170  -7.959  -4.720  0.00  0.00    +0.000 C 
ATOM     27  C   UNL     1       0.404  -9.039  -5.514  0.00  0.00    +0.000 C 
ATOM     28  C   UNL     1       1.777  -9.242  -6.134  0.00  0.00    +0.000 C 
ATOM     29  C   UNL     1      -0.706 -10.041  -5.782  0.00  0.00    +0.000 C 
ENDBRANCH  25  26
ENDBRANCH  24  25
ENDBRANCH  22  24
ENDBRANCH  20  21
ENDBRANCH  19  20
ENDBRANCH  17  19
ENDBRANCH   1  16
TORSDOF 11
