REMARK  Name = 
REMARK  9 active torsions:
REMARK  status: ('A' for Active; 'I' for Inactive)
REMARK    1  A    between atoms: C_2  and  C_3
REMARK    2  A    between atoms: C_3  and  C_4
REMARK    3  A    between atoms: C_4  and  O_5
REMARK    4  A    between atoms: C_4  and  C_6
REMARK    5  A    between atoms: C_6  and  O_7
REMARK    6  A    between atoms: C_6  and  C_8
REMARK    7  A    between atoms: C_8  and  O_9
REMARK    8  A    between atoms: C_8  and  C_10
REMARK    9  A    between atoms: C_10  and  O_11
REMARK                            x       y       z     vdW  Elec       q    Type
REMARK                         _______ _______ _______ _____ _____    ______ ____
ROOT
ATOM      1  C   UNL     1       4.598  -0.610   2.958  0.00  0.00    +0.000 C 
ENDROOT
BRANCH   1   2
ATOM      2  O   UNL     1       3.675  -0.346   4.005  0.00  0.00    +0.000 OA
ATOM      3  H   UNL     1       3.100   0.433   3.753  0.00  0.00    +0.000 HD
ENDBRANCH   1   2
BRANCH   1   4
ATOM      4  C   UNL     1       3.838  -0.932   1.682  0.00  0.00    +0.000 C 
BRANCH   4   5
ATOM      5  O   UNL     1       4.761  -1.196   0.635  0.00  0.00    +0.000 OA
ATOM      6  H   UNL     1       4.261  -1.408  -0.204  0.00  0.00    +0.000 HD
ENDBRANCH   4   5
BRANCH   4   7
ATOM      7  C   UNL     1       2.964   0.252   1.300  0.00  0.00    +0.000 C 
BRANCH   7   9
ATOM      8  O   UNL     1       0.933  -0.070   0.024  0.00  0.00    +0.000 OA
ATOM      9  C   UNL     1       2.204  -0.070   0.024  0.00  0.00    +0.000 C 
ENDBRANCH   7   9
ENDBRANCH   4   7
ENDBRANCH   1   4
BRANCH   1  10
ATOM     10  C   UNL     1       5.472  -1.794   3.340  0.00  0.00    +0.000 C 
BRANCH  10  11
ATOM     11  O   UNL     1       6.394  -2.058   2.293  0.00  0.00    +0.000 OA
ATOM     12  H   UNL     1       5.894  -2.269   1.454  0.00  0.00    +0.000 HD
ENDBRANCH  10  11
BRANCH  10  13
ATOM     13  C   UNL     1       6.232  -1.472   4.616  0.00  0.00    +0.000 C 
BRANCH  13  14
ATOM     14  O   UNL     1       5.309  -1.207   5.663  0.00  0.00    +0.000 OA
ATOM     15  H   UNL     1       4.734  -0.429   5.412  0.00  0.00    +0.000 HD
ENDBRANCH  13  14
ENDBRANCH  10  13
ENDBRANCH   1  10
TORSDOF 9
