
 OpenBabel03132514253D

 85 88  0  0  0  0  0  0  0  0999 V2000
    0.9419   -0.0814    0.0010 C   0  0  0  0  0  0  0  0  0  0  0  0
    0.4352   -1.0593   -1.0466 C   0  0  0  0  0  0  0  0  0  0  0  0
   -0.4386   -2.2319   -0.6320 C   0  0  0  0  0  0  0  0  0  0  0  0
    0.7639   -0.8852   -2.3551 C   0  0  0  0  0  0  0  0  0  0  0  0
    1.6377    0.2874   -2.7697 C   0  0  0  0  0  0  0  0  0  0  0  0
    2.9044   -0.2331   -3.4293 C   0  0  0  0  0  0  0  0  0  0  0  0
    2.5372   -1.0503   -4.6572 C   0  0  0  0  0  0  0  0  0  0  0  0
    1.7772   -0.1746   -5.6400 C   0  0  0  0  0  0  0  0  0  0  0  0
    3.7205   -1.5365   -5.2734 O   0  0  0  0  0  0  0  0  0  0  0  0
    1.6633   -2.2229   -4.2426 C   0  0  0  0  0  0  0  0  0  0  0  0
    0.6730   -1.5435   -3.2939 C   0  0  0  0  0  0  0  0  0  0  0  0
    1.3968   -0.4593   -2.4920 C   0  0  0  0  0  0  0  0  0  0  0  0
    0.8119    0.9101   -2.8418 C   0  0  0  0  0  0  0  0  0  0  0  0
   -0.2965    1.8901   -2.4932 C   0  0  0  0  0  0  0  0  0  0  0  0
    0.9388   -2.6386   -5.5240 C   0  0  0  0  0  0  0  0  0  0  0  0
    1.9462   -2.7334   -6.6722 C   0  0  0  0  0  0  0  0  0  0  0  0
    3.0640   -1.9042   -6.3903 O   0  0  0  0  0  0  0  0  0  0  0  0
    1.2844   -2.2716   -7.9717 C   0  0  0  0  0  0  0  0  0  0  0  0
    2.2749   -1.4291   -8.7774 C   0  0  0  0  0  0  0  0  0  0  0  0
    1.6134   -0.1097   -9.1812 C   0  0  0  0  0  0  0  0  0  0  0  0
    0.5715   -0.7575  -10.0785 C   0  0  0  0  0  0  0  0  0  0  0  0
    2.6464    1.0173   -9.1201 C   0  0  0  0  0  0  0  0  0  0  0  0
    1.9598    2.3089   -8.7550 C   0  0  0  0  0  0  0  0  0  0  0  0
    1.7142    2.5973   -7.4671 C   0  0  0  0  0  0  0  0  0  0  0  0
    0.7927    1.6062   -7.0372 O   0  0  0  0  0  0  0  0  0  0  0  0
    1.0627    3.8636   -7.1871 C   0  0  0  0  0  0  0  0  0  0  0  0
    1.5676    4.9199   -8.1565 C   0  0  0  0  0  0  0  0  0  0  0  0
   -0.4406    3.7072   -7.3484 C   0  0  0  0  0  0  0  0  0  0  0  0
    1.3807    4.2919   -5.7527 C   0  0  0  0  0  0  0  0  0  0  0  0
    1.8026    3.1331   -4.9865 C   0  0  0  0  0  0  0  0  0  0  0  0
    1.5224    3.1346   -3.6734 C   0  0  0  0  0  0  0  0  0  0  0  0
    1.9227    1.9611   -2.8167 C   0  0  0  0  0  0  0  0  0  0  0  0
    2.7273    2.3051   -1.5739 C   0  0  0  0  0  0  0  0  0  0  0  0
    0.5852   -0.3758    0.9659 H   0  0  0  0  0  0  0  0  0  0  0  0
    0.5852    0.9014   -0.2266 H   0  0  0  0  0  0  0  0  0  0  0  0
    2.0119   -0.0814    0.0010 H   0  0  0  0  0  0  0  0  0  0  0  0
   -1.3838   -2.1657   -1.1293 H   0  0  0  0  0  0  0  0  0  0  0  0
    0.0429   -3.1485   -0.9018 H   0  0  0  0  0  0  0  0  0  0  0  0
   -0.5903   -2.2069    0.4269 H   0  0  0  0  0  0  0  0  0  0  0  0
    0.4072   -1.5736   -3.0925 H   0  0  0  0  0  0  0  0  0  0  0  0
    1.1027    0.9038   -3.4615 H   0  0  0  0  0  0  0  0  0  0  0  0
    1.8962    0.8627   -1.9054 H   0  0  0  0  0  0  0  0  0  0  0  0
    3.5196    0.5923   -3.7212 H   0  0  0  0  0  0  0  0  0  0  0  0
    3.4394   -0.8495   -2.7375 H   0  0  0  0  0  0  0  0  0  0  0  0
    2.3924    0.6508   -5.9318 H   0  0  0  0  0  0  0  0  0  0  0  0
    1.5187   -0.7499   -6.5044 H   0  0  0  0  0  0  0  0  0  0  0  0
    0.8855    0.1917   -5.1757 H   0  0  0  0  0  0  0  0  0  0  0  0
    4.2954   -0.7651   -5.5462 H   0  0  0  0  0  0  0  0  0  0  0  0
    2.1519   -3.0675   -3.8035 H   0  0  0  0  0  0  0  0  0  0  0  0
   -0.1176   -1.0993   -3.8618 H   0  0  0  0  0  0  0  0  0  0  0  0
    0.2652   -2.2708   -2.6233 H   0  0  0  0  0  0  0  0  0  0  0  0
    2.4392   -0.4738   -2.7329 H   0  0  0  0  0  0  0  0  0  0  0  0
    1.2697   -0.6447   -1.4459 H   0  0  0  0  0  0  0  0  0  0  0  0
   -1.2469    1.4269   -2.6577 H   0  0  0  0  0  0  0  0  0  0  0  0
   -0.2113    2.1739   -1.4650 H   0  0  0  0  0  0  0  0  0  0  0  0
   -0.2115    2.7593   -3.1113 H   0  0  0  0  0  0  0  0  0  0  0  0
    0.2214   -3.2935   -5.9727 H   0  0  0  0  0  0  0  0  0  0  0  0
    2.2714   -3.7472   -6.7784 H   0  0  0  0  0  0  0  0  0  0  0  0
    2.7597   -0.9568   -6.2911 H   0  0  0  0  0  0  0  0  0  0  0  0
    0.9929   -3.1258   -8.5464 H   0  0  0  0  0  0  0  0  0  0  0  0
    0.4202   -1.6838   -7.7424 H   0  0  0  0  0  0  0  0  0  0  0  0
    2.9508   -1.9103   -9.4532 H   0  0  0  0  0  0  0  0  0  0  0  0
   -0.2528   -1.0921   -9.4839 H   0  0  0  0  0  0  0  0  0  0  0  0
    0.2264   -0.0438  -10.7972 H   0  0  0  0  0  0  0  0  0  0  0  0
    1.0073   -1.5926  -10.5860 H   0  0  0  0  0  0  0  0  0  0  0  0
    3.3849    0.7847   -8.3815 H   0  0  0  0  0  0  0  0  0  0  0  0
    3.1177    1.1214  -10.0750 H   0  0  0  0  0  0  0  0  0  0  0  0
    2.6701    3.0554   -9.0434 H   0  0  0  0  0  0  0  0  0  0  0  0
    1.0150    2.3093   -9.2573 H   0  0  0  0  0  0  0  0  0  0  0  0
    2.6519    2.5960   -6.9518 H   0  0  0  0  0  0  0  0  0  0  0  0
   -0.0502    1.6811   -7.5700 H   0  0  0  0  0  0  0  0  0  0  0  0
    1.3453    4.6194   -9.1590 H   0  0  0  0  0  0  0  0  0  0  0  0
    1.0871    5.8532   -7.9490 H   0  0  0  0  0  0  0  0  0  0  0  0
    2.6259    5.0308   -8.0438 H   0  0  0  0  0  0  0  0  0  0  0  0
   -0.7969    2.9633   -6.6670 H   0  0  0  0  0  0  0  0  0  0  0  0
   -0.9206    4.6406   -7.1405 H   0  0  0  0  0  0  0  0  0  0  0  0
   -0.6624    3.4078   -8.3514 H   0  0  0  0  0  0  0  0  0  0  0  0
    1.3182    5.2285   -5.2390 H   0  0  0  0  0  0  0  0  0  0  0  0
    1.2422    2.3152   -5.3890 H   0  0  0  0  0  0  0  0  0  0  0  0
    2.8642    3.0471   -5.0898 H   0  0  0  0  0  0  0  0  0  0  0  0
    2.1248    3.9333   -3.2939 H   0  0  0  0  0  0  0  0  0  0  0  0
    0.4608    3.2345   -3.5841 H   0  0  0  0  0  0  0  0  0  0  0  0
    2.0682    2.6594   -0.8091 H   0  0  0  0  0  0  0  0  0  0  0  0
    3.2391    1.4318   -1.2273 H   0  0  0  0  0  0  0  0  0  0  0  0
    3.4410    3.0664   -1.8105 H   0  0  0  0  0  0  0  0  0  0  0  0
  1  2  1  0  0  0  0
  1 34  1  0  0  0  0
  1 35  1  0  0  0  0
  1 36  1  0  0  0  0
  2  3  1  0  0  0  0
  2  4  2  0  0  0  0
  3 37  1  0  0  0  0
  3 38  1  0  0  0  0
  3 39  1  0  0  0  0
  4  5  1  0  0  0  0
  4 40  1  0  0  0  0
  5  6  1  0  0  0  0
  5 41  1  0  0  0  0
  5 42  1  0  0  0  0
  6  7  1  0  0  0  0
  6 43  1  0  0  0  0
  6 44  1  0  0  0  0
  7  8  1  0  0  0  0
  7  9  1  0  0  0  0
  7 10  1  0  0  0  0
  8 45  1  0  0  0  0
  8 46  1  0  0  0  0
  8 47  1  0  0  0  0
  9 48  1  0  0  0  0
 10 11  1  0  0  0  0
 10 15  1  0  0  0  0
 10 49  1  0  0  0  0
 11 12  1  0  0  0  0
 11 50  1  0  0  0  0
 11 51  1  0  0  0  0
 12 13  1  0  0  0  0
 12 52  1  0  0  0  0
 12 53  1  0  0  0  0
 13 14  1  0  0  0  0
 13 15  1  0  0  0  0
 13 32  1  0  0  0  0
 14 54  1  0  0  0  0
 14 55  1  0  0  0  0
 14 56  1  0  0  0  0
 15 16  1  0  0  0  0
 15 57  1  0  0  0  0
 16 17  1  0  0  0  0
 16 18  1  0  0  0  0
 16 58  1  0  0  0  0
 17 59  1  0  0  0  0
 18 19  1  0  0  0  0
 18 60  1  0  0  0  0
 18 61  1  0  0  0  0
 19 20  1  0  0  0  0
 19 32  1  0  0  0  0
 19 62  1  0  0  0  0
 20 21  1  0  0  0  0
 20 22  1  0  0  0  0
 20 29  1  0  0  0  0
 21 63  1  0  0  0  0
 21 64  1  0  0  0  0
 21 65  1  0  0  0  0
 22 23  1  0  0  0  0
 22 66  1  0  0  0  0
 22 67  1  0  0  0  0
 23 24  1  0  0  0  0
 23 68  1  0  0  0  0
 23 69  1  0  0  0  0
 24 25  1  0  0  0  0
 24 26  1  0  0  0  0
 24 70  1  0  0  0  0
 25 71  1  0  0  0  0
 26 27  1  0  0  0  0
 26 28  1  0  0  0  0
 26 29  1  0  0  0  0
 27 72  1  0  0  0  0
 27 73  1  0  0  0  0
 27 74  1  0  0  0  0
 28 75  1  0  0  0  0
 28 76  1  0  0  0  0
 28 77  1  0  0  0  0
 29 30  1  0  0  0  0
 29 78  1  0  0  0  0
 30 31  1  0  0  0  0
 30 79  1  0  0  0  0
 30 80  1  0  0  0  0
 31 32  1  0  0  0  0
 31 81  1  0  0  0  0
 31 82  1  0  0  0  0
 32 33  1  0  0  0  0
 33 83  1  0  0  0  0
 33 84  1  0  0  0  0
 33 85  1  0  0  0  0
M  END
