REMARK  Name = 
REMARK  15 active torsions:
REMARK  status: ('A' for Active; 'I' for Inactive)
REMARK    1  A    between atoms: C_1  and  C_2
REMARK    2  A    between atoms: C_2  and  C_3
REMARK    3  A    between atoms: C_4  and  C_5
REMARK    4  A    between atoms: C_5  and  C_6
REMARK    5  A    between atoms: C_6  and  C_7
REMARK    6  A    between atoms: C_7  and  C_8
REMARK    7  A    between atoms: C_7  and  O_9
REMARK    8  A    between atoms: C_7  and  C_10
REMARK    9  A    between atoms: C_13  and  C_14
REMARK   10  A    between atoms: C_16  and  O_17
REMARK   11  A    between atoms: C_20  and  C_21
REMARK   12  A    between atoms: C_24  and  O_25
REMARK   13  A    between atoms: C_26  and  C_27
REMARK   14  A    between atoms: C_26  and  C_28
REMARK   15  A    between atoms: C_32  and  C_33
REMARK                            x       y       z     vdW  Elec       q    Type
REMARK                         _______ _______ _______ _____ _____    ______ ____
ROOT
ATOM      1  C   UNL     1       1.663  -2.223  -4.243  0.00  0.00    +0.000 C 
ATOM      2  C   UNL     1       0.673  -1.544  -3.294  0.00  0.00    +0.000 C 
ATOM      3  C   UNL     1       1.397  -0.459  -2.492  0.00  0.00    +0.000 C 
ATOM      4  C   UNL     1       0.812   0.910  -2.842  0.00  0.00    +0.000 C 
ATOM      5  C   UNL     1      -0.296   1.890  -2.493  0.00  0.00    +0.000 C 
ATOM      6  C   UNL     1       0.939  -2.639  -5.524  0.00  0.00    +0.000 C 
ATOM      7  C   UNL     1       1.946  -2.733  -6.672  0.00  0.00    +0.000 C 
ATOM      8  C   UNL     1       1.284  -2.272  -7.972  0.00  0.00    +0.000 C 
ATOM      9  C   UNL     1       2.275  -1.429  -8.777  0.00  0.00    +0.000 C 
ATOM     10  C   UNL     1       1.613  -0.110  -9.181  0.00  0.00    +0.000 C 
ATOM     11  C   UNL     1       0.572  -0.757 -10.079  0.00  0.00    +0.000 C 
ATOM     12  C   UNL     1       2.646   1.017  -9.120  0.00  0.00    +0.000 C 
ATOM     13  C   UNL     1       1.960   2.309  -8.755  0.00  0.00    +0.000 C 
ATOM     14  C   UNL     1       1.714   2.597  -7.467  0.00  0.00    +0.000 C 
ATOM     15  C   UNL     1       1.063   3.864  -7.187  0.00  0.00    +0.000 C 
ATOM     16  C   UNL     1       1.568   4.920  -8.156  0.00  0.00    +0.000 C 
ATOM     17  C   UNL     1      -0.441   3.707  -7.348  0.00  0.00    +0.000 C 
ATOM     18  C   UNL     1       1.381   4.292  -5.753  0.00  0.00    +0.000 C 
ATOM     19  C   UNL     1       1.803   3.133  -4.987  0.00  0.00    +0.000 C 
ATOM     20  C   UNL     1       1.522   3.135  -3.673  0.00  0.00    +0.000 C 
ATOM     21  C   UNL     1       1.923   1.961  -2.817  0.00  0.00    +0.000 C 
ATOM     22  C   UNL     1       2.727   2.305  -1.574  0.00  0.00    +0.000 C 
ENDROOT
BRANCH   1  23
ATOM     23  C   UNL     1       2.537  -1.050  -4.657  0.00  0.00    +0.000 C 
ATOM     24  C   UNL     1       1.777  -0.175  -5.640  0.00  0.00    +0.000 C 
BRANCH  23  25
ATOM     25  O   UNL     1       3.720  -1.536  -5.273  0.00  0.00    +0.000 OA
ATOM     26  H   UNL     1       4.295  -0.765  -5.546  0.00  0.00    +0.000 HD
ENDBRANCH  23  25
BRANCH  23  27
ATOM     27  C   UNL     1       2.904  -0.233  -3.429  0.00  0.00    +0.000 C 
BRANCH  27  28
ATOM     28  C   UNL     1       1.638   0.287  -2.770  0.00  0.00    +0.000 C 
BRANCH  28  32
ATOM     29  C   UNL     1       0.942  -0.081   0.001  0.00  0.00    +0.000 C 
ATOM     30  C   UNL     1       0.435  -1.059  -1.047  0.00  0.00    +0.000 C 
ATOM     31  C   UNL     1      -0.439  -2.232  -0.632  0.00  0.00    +0.000 C 
ATOM     32  C   UNL     1       0.764  -0.885  -2.355  0.00  0.00    +0.000 C 
ENDBRANCH  28  32
ENDBRANCH  27  28
ENDBRANCH  23  27
ENDBRANCH   1  23
BRANCH   7  33
ATOM     33  O   UNL     1       3.064  -1.904  -6.390  0.00  0.00    +0.000 OA
ATOM     34  H   UNL     1       2.760  -0.957  -6.291  0.00  0.00    +0.000 HD
ENDBRANCH   7  33
BRANCH  14  35
ATOM     35  O   UNL     1       0.793   1.606  -7.037  0.00  0.00    +0.000 OA
ATOM     36  H   UNL     1      -0.050   1.681  -7.570  0.00  0.00    +0.000 HD
ENDBRANCH  14  35
TORSDOF 7
