
 OpenBabel03132514253D

 61 64  0  0  0  0  0  0  0  0999 V2000
    0.9431   -0.0721    0.0395 C   0  0  0  0  0  0  0  0  0  0  0  0
    0.4364   -0.3787    1.4394 C   0  0  0  0  0  0  0  0  0  0  0  0
    0.9431    0.6804    2.4049 C   0  0  0  0  0  0  0  0  0  0  0  0
   -1.0836   -0.3787    1.4394 C   0  0  0  0  0  0  0  0  0  0  0  0
   -1.8862   -1.4706    1.4400 C   0  0  0  0  0  0  0  0  0  0  0  0
   -3.1567   -0.9991    1.4509 C   0  0  0  0  0  0  0  0  0  0  0  0
   -4.4268   -1.8341    1.4621 C   0  0  0  0  0  0  0  0  0  0  0  0
   -5.5623   -1.2634    1.4718 O   0  0  0  0  0  0  0  0  0  0  0  0
   -4.3416   -3.3016    1.4619 N   0  0  0  0  0  0  0  0  0  0  0  0
   -3.0282   -3.9616    1.4507 C   0  0  0  0  0  0  0  0  0  0  0  0
   -2.8078   -5.0299    0.5970 C   0  0  0  0  0  0  0  0  0  0  0  0
   -1.6277   -5.7569    0.8812 C   0  0  0  0  0  0  0  0  0  0  0  0
   -0.6296   -5.3059    1.6191 C   0  0  0  0  0  0  0  0  0  0  0  0
   -0.8908   -4.2065    2.3889 C   0  0  0  0  0  0  0  0  0  0  0  0
    0.0748   -3.7680    3.3333 O   0  0  0  0  0  0  0  0  0  0  0  0
   -0.1860   -2.6275    4.1380 C   0  0  0  0  0  0  0  0  0  0  0  0
   -0.4030   -1.4165    3.2454 C   0  0  0  0  0  0  0  0  0  0  0  0
   -0.7279   -1.4051    1.9297 C   0  0  0  0  0  0  0  0  0  0  0  0
   -0.6657   -0.1080    1.5419 N   0  0  0  0  0  0  0  0  0  0  0  0
   -0.9279    0.3849    0.2659 C   0  0  0  0  0  0  0  0  0  0  0  0
   -0.8199    1.7968    0.0031 C   0  0  0  0  0  0  0  0  0  0  0  0
   -1.0911    2.3065   -1.3163 C   0  0  0  0  0  0  0  0  0  0  0  0
   -0.1343    2.0227    2.6004 C   0  0  0  0  0  0  0  0  0  0  0  0
   -0.3148    0.5939    2.5846 C   0  0  0  0  0  0  0  0  0  0  0  0
   -0.1546   -0.1842    3.5959 N   0  0  0  0  0  0  0  0  0  0  0  0
   -2.0742   -3.5199    2.2619 C   0  0  0  0  0  0  0  0  0  0  0  0
   -3.0885    0.3042    1.4498 N   0  0  0  0  0  0  0  0  0  0  0  0
   -1.8565    0.6729    1.4389 N   0  0  0  0  0  0  0  0  0  0  0  0
   -1.3899    2.0668    1.4274 C   0  0  0  0  0  0  0  0  0  0  0  0
   -1.9174    2.7675    0.1860 C   0  0  0  0  0  0  0  0  0  0  0  0
   -1.8996    2.7819    2.6680 C   0  0  0  0  0  0  0  0  0  0  0  0
    0.1299    2.0923    1.4164 C   0  0  0  0  0  0  0  0  0  0  0  0
    0.5864    0.8892   -0.2663 H   0  0  0  0  0  0  0  0  0  0  0  0
    0.5864   -0.8176   -0.6401 H   0  0  0  0  0  0  0  0  0  0  0  0
    2.0131   -0.0721    0.0395 H   0  0  0  0  0  0  0  0  0  0  0  0
    0.7931   -1.3400    1.7453 H   0  0  0  0  0  0  0  0  0  0  0  0
    0.5864    1.6417    2.0990 H   0  0  0  0  0  0  0  0  0  0  0  0
    0.5864    0.4646    3.3903 H   0  0  0  0  0  0  0  0  0  0  0  0
    2.0131    0.6804    2.4049 H   0  0  0  0  0  0  0  0  0  0  0  0
   -1.5795   -2.4957    1.4333 H   0  0  0  0  0  0  0  0  0  0  0  0
   -5.1939   -3.8619    1.4694 H   0  0  0  0  0  0  0  0  0  0  0  0
   -3.4699   -5.2824   -0.2047 H   0  0  0  0  0  0  0  0  0  0  0  0
   -1.5377   -6.7405    0.4698 H   0  0  0  0  0  0  0  0  0  0  0  0
    0.3319   -5.7755    1.6147 H   0  0  0  0  0  0  0  0  0  0  0  0
   -1.0634   -2.7990    4.7260 H   0  0  0  0  0  0  0  0  0  0  0  0
    0.6475   -2.4491    4.7847 H   0  0  0  0  0  0  0  0  0  0  0  0
   -0.9816   -2.2480    1.3214 H   0  0  0  0  0  0  0  0  0  0  0  0
   -1.2097   -0.2854   -0.5191 H   0  0  0  0  0  0  0  0  0  0  0  0
   -0.5382    2.4671    0.7881 H   0  0  0  0  0  0  0  0  0  0  0  0
   -1.3728    1.6362   -2.1013 H   0  0  0  0  0  0  0  0  0  0  0  0
    0.1558    2.5153    3.5048 H   0  0  0  0  0  0  0  0  0  0  0  0
   -2.2284   -2.6212    2.8218 H   0  0  0  0  0  0  0  0  0  0  0  0
   -2.9872    2.7496    0.1938 H   0  0  0  0  0  0  0  0  0  0  0  0
   -1.5777    3.7821    0.1777 H   0  0  0  0  0  0  0  0  0  0  0  0
   -1.5586    2.2641   -0.6873 H   0  0  0  0  0  0  0  0  0  0  0  0
   -1.5282    2.2887    3.5419 H   0  0  0  0  0  0  0  0  0  0  0  0
   -1.5599    3.7966    2.6597 H   0  0  0  0  0  0  0  0  0  0  0  0
   -2.9694    2.7640    2.6758 H   0  0  0  0  0  0  0  0  0  0  0  0
    0.5012    1.5990    2.2902 H   0  0  0  0  0  0  0  0  0  0  0  0
    0.4887    1.5888    0.5430 H   0  0  0  0  0  0  0  0  0  0  0  0
    0.4695    3.1069    1.4080 H   0  0  0  0  0  0  0  0  0  0  0  0
  1  2  1  0  0  0  0
  1 33  1  0  0  0  0
  1 34  1  0  0  0  0
  1 35  1  0  0  0  0
  2  3  1  0  0  0  0
  2  4  1  0  0  0  0
  2 36  1  0  0  0  0
  3 37  1  0  0  0  0
  3 38  1  0  0  0  0
  3 39  1  0  0  0  0
  4  5  2  0  0  0  0
  4 28  1  0  0  0  0
  5  6  1  0  0  0  0
  5 40  1  0  0  0  0
  6  7  1  0  0  0  0
  6 27  2  0  0  0  0
  7  8  2  0  0  0  0
  7  9  1  0  0  0  0
  9 10  1  0  0  0  0
  9 41  1  0  0  0  0
 10 11  1  0  0  0  0
 10 26  2  0  0  0  0
 11 12  2  0  0  0  0
 11 42  1  0  0  0  0
 12 13  1  0  0  0  0
 12 43  1  0  0  0  0
 13 14  2  0  0  0  0
 13 44  1  0  0  0  0
 14 15  1  0  0  0  0
 14 26  1  0  0  0  0
 15 16  1  0  0  0  0
 16 17  1  0  0  0  0
 16 45  1  0  0  0  0
 16 46  1  0  0  0  0
 17 18  2  0  0  0  0
 17 25  1  0  0  0  0
 18 19  1  0  0  0  0
 18 47  1  0  0  0  0
 19 20  1  0  0  0  0
 19 24  1  0  0  0  0
 20 21  2  0  0  0  0
 20 48  1  0  0  0  0
 21 22  1  0  0  0  0
 21 49  1  0  0  0  0
 22 23  2  0  0  0  0
 22 50  1  0  0  0  0
 23 24  1  0  0  0  0
 23 51  1  0  0  0  0
 24 25  2  0  0  0  0
 26 52  1  0  0  0  0
 27 28  1  0  0  0  0
 28 29  1  0  0  0  0
 29 30  1  0  0  0  0
 29 31  1  0  0  0  0
 29 32  1  0  0  0  0
 30 53  1  0  0  0  0
 30 54  1  0  0  0  0
 30 55  1  0  0  0  0
 31 56  1  0  0  0  0
 31 57  1  0  0  0  0
 31 58  1  0  0  0  0
 32 59  1  0  0  0  0
 32 60  1  0  0  0  0
 32 61  1  0  0  0  0
M  END
