REMARK  Name = 
REMARK  12 active torsions:
REMARK  status: ('A' for Active; 'I' for Inactive)
REMARK    1  A    between atoms: C_1  and  C_2
REMARK    2  A    between atoms: C_2  and  C_3
REMARK    3  A    between atoms: C_2  and  C_4
REMARK    4  A    between atoms: C_6  and  C_7
REMARK    5  A    between atoms: N_9  and  C_10
REMARK    6  A    between atoms: C_14  and  O_15
REMARK    7  A    between atoms: O_15  and  C_16
REMARK    8  A    between atoms: C_16  and  C_17
REMARK    9  A    between atoms: N_28  and  C_29
REMARK   10  A    between atoms: C_29  and  C_30
REMARK   11  A    between atoms: C_29  and  C_31
REMARK   12  A    between atoms: C_29  and  C_32
REMARK                            x       y       z     vdW  Elec       q    Type
REMARK                         _______ _______ _______ _____ _____    ______ ____
ROOT
ATOM      1  C   UNL     1      -3.028  -3.962   1.451  0.00  0.00    +0.000 A 
ATOM      2  C   UNL     1      -2.808  -5.030   0.597  0.00  0.00    +0.000 A 
ATOM      3  C   UNL     1      -1.628  -5.757   0.881  0.00  0.00    +0.000 A 
ATOM      4  C   UNL     1      -0.630  -5.306   1.619  0.00  0.00    +0.000 A 
ATOM      5  C   UNL     1      -0.891  -4.207   2.389  0.00  0.00    +0.000 A 
ATOM      6  C   UNL     1      -2.074  -3.520   2.262  0.00  0.00    +0.000 A 
ENDROOT
BRANCH   1   9
ATOM      7  C   UNL     1      -4.427  -1.834   1.462  0.00  0.00    +0.000 C 
ATOM      8  O   UNL     1      -5.562  -1.263   1.472  0.00  0.00    +0.000 OA
ATOM      9  N   UNL     1      -4.342  -3.302   1.462  0.00  0.00    +0.000 N 
ATOM     10  H   UNL     1      -5.194  -3.862   1.469  0.00  0.00    +0.000 HD
BRANCH   7  13
ATOM     11  C   UNL     1      -1.084  -0.379   1.439  0.00  0.00    +0.000 A 
ATOM     12  C   UNL     1      -1.886  -1.471   1.440  0.00  0.00    +0.000 A 
ATOM     13  C   UNL     1      -3.157  -0.999   1.451  0.00  0.00    +0.000 A 
ATOM     14  N   UNL     1      -3.088   0.304   1.450  0.00  0.00    +0.000 NA
ATOM     15  N   UNL     1      -1.857   0.673   1.439  0.00  0.00    +0.000 N 
BRANCH  15  16
ATOM     16  C   UNL     1      -1.390   2.067   1.427  0.00  0.00    +0.000 C 
ATOM     17  C   UNL     1      -1.917   2.768   0.186  0.00  0.00    +0.000 C 
ATOM     18  C   UNL     1      -1.900   2.782   2.668  0.00  0.00    +0.000 C 
ATOM     19  C   UNL     1       0.130   2.092   1.416  0.00  0.00    +0.000 C 
ENDBRANCH  15  16
BRANCH  11  21
ATOM     20  C   UNL     1       0.943  -0.072   0.040  0.00  0.00    +0.000 C 
ATOM     21  C   UNL     1       0.436  -0.379   1.439  0.00  0.00    +0.000 C 
ATOM     22  C   UNL     1       0.943   0.680   2.405  0.00  0.00    +0.000 C 
ENDBRANCH  11  21
ENDBRANCH   7  13
ENDBRANCH   1   9
BRANCH   5  23
ATOM     23  O   UNL     1       0.075  -3.768   3.333  0.00  0.00    +0.000 OA
BRANCH  23  24
ATOM     24  C   UNL     1      -0.186  -2.627   4.138  0.00  0.00    +0.000 C 
BRANCH  24  25
ATOM     25  C   UNL     1      -0.403  -1.417   3.245  0.00  0.00    +0.000 A 
ATOM     26  C   UNL     1      -0.728  -1.405   1.930  0.00  0.00    +0.000 A 
ATOM     27  N   UNL     1      -0.666  -0.108   1.542  0.00  0.00    +0.000 N 
ATOM     28  C   UNL     1      -0.928   0.385   0.266  0.00  0.00    +0.000 A 
ATOM     29  C   UNL     1      -0.820   1.797   0.003  0.00  0.00    +0.000 A 
ATOM     30  C   UNL     1      -1.091   2.307  -1.316  0.00  0.00    +0.000 A 
ATOM     31  C   UNL     1      -0.134   2.023   2.600  0.00  0.00    +0.000 A 
ATOM     32  C   UNL     1      -0.315   0.594   2.585  0.00  0.00    +0.000 A 
ATOM     33  N   UNL     1      -0.155  -0.184   3.596  0.00  0.00    +0.000 NA
ENDBRANCH  24  25
ENDBRANCH  23  24
ENDBRANCH   5  23
TORSDOF 7
