REMARK  Name = 
REMARK  10 active torsions:
REMARK  status: ('A' for Active; 'I' for Inactive)
REMARK    1  A    between atoms: C_1  and  O_2
REMARK    2  A    between atoms: O_2  and  C_3
REMARK    3  A    between atoms: C_6  and  C_7
REMARK    4  A    between atoms: C_10  and  C_11
REMARK    5  A    between atoms: C_11  and  N_12
REMARK    6  A    between atoms: C_13  and  C_15
REMARK    7  A    between atoms: C_15  and  C_16
REMARK    8  A    between atoms: C_16  and  C_17
REMARK    9  A    between atoms: C_17  and  C_18
REMARK   10  A    between atoms: C_18  and  C_19
REMARK                            x       y       z     vdW  Elec       q    Type
REMARK                         _______ _______ _______ _____ _____    ______ ____
ROOT
ATOM      1  N   UNL     1       3.109  -9.893   3.664  0.00  0.00    +0.000 N 
ATOM      2  C   UNL     1       3.203 -11.321   3.328  0.00  0.00    +0.000 C 
ATOM      3  O   UNL     1       2.496 -12.170   3.957  0.00  0.00    +0.000 OA
ATOM      4  H   UNL     1       2.477  -9.583   4.402  0.00  0.00    +0.000 HD
ENDROOT
BRANCH   1   5
ATOM      5  C   UNL     1       3.926  -8.911   2.936  0.00  0.00    +0.000 C 
BRANCH   5   9
ATOM      6  C   UNL     1       2.038  -6.143   1.637  0.00  0.00    +0.000 A 
ATOM      7  N   UNL     1       1.444  -7.066   0.919  0.00  0.00    +0.000 NA
ATOM      8  N   UNL     1       2.091  -8.204   1.321  0.00  0.00    +0.000 N 
ATOM      9  C   UNL     1       3.017  -7.909   2.245  0.00  0.00    +0.000 A 
ATOM     10  N   UNL     1       3.010  -6.596   2.457  0.00  0.00    +0.000 NA
ATOM     11  H   UNL     1       1.896  -9.141   0.969  0.00  0.00    +0.000 HD
BRANCH   6  15
ATOM     12  C   UNL     1       0.893  -2.056   1.156  0.00  0.00    +0.000 A 
ATOM     13  C   UNL     1      -0.082  -2.987   1.475  0.00  0.00    +0.000 A 
ATOM     14  C   UNL     1       0.431  -4.258   1.825  0.00  0.00    +0.000 A 
ATOM     15  C   UNL     1       1.653  -4.675   1.546  0.00  0.00    +0.000 A 
ATOM     16  C   UNL     1       2.552  -3.716   1.171  0.00  0.00    +0.000 A 
ATOM     17  C   UNL     1       2.150  -2.423   0.936  0.00  0.00    +0.000 A 
BRANCH  12  19
ATOM     18  C   UNL     1       1.023   0.084  -0.049  0.00  0.00    +0.000 C 
ATOM     19  O   UNL     1       0.550  -0.682   1.048  0.00  0.00    +0.000 OA
ENDBRANCH  12  19
ENDBRANCH   6  15
ENDBRANCH   5   9
ENDBRANCH   1   5
BRANCH   2  20
ATOM     20  C   UNL     1       4.144 -11.782   2.227  0.00  0.00    +0.000 C 
BRANCH  20  21
ATOM     21  C   UNL     1       3.753 -11.121   0.915  0.00  0.00    +0.000 C 
BRANCH  21  22
ATOM     22  C   UNL     1       3.847  -9.611   1.062  0.00  0.00    +0.000 C 
BRANCH  22  23
ATOM     23  C   UNL     1       5.272  -9.224   1.420  0.00  0.00    +0.000 C 
BRANCH  23  24
ATOM     24  C   UNL     1       6.214  -9.685   0.319  0.00  0.00    +0.000 A 
ATOM     25  N   UNL     1       6.303 -11.038   0.001  0.00  0.00    +0.000 NA
ATOM     26  C   UNL     1       7.213 -11.484  -1.064  0.00  0.00    +0.000 A 
ATOM     27  C   UNL     1       6.728 -12.363  -2.018  0.00  0.00    +0.000 A 
ATOM     28  C   UNL     1       7.729 -12.914  -2.852  0.00  0.00    +0.000 A 
ATOM     29  C   UNL     1       8.942 -12.414  -2.996  0.00  0.00    +0.000 A 
ATOM     30  C   UNL     1       9.338 -11.499  -2.060  0.00  0.00    +0.000 A 
ATOM     31  C   UNL     1       8.452 -11.011  -1.130  0.00  0.00    +0.000 A 
ATOM     32  S   UNL     1       7.167  -8.540  -0.530  0.00  0.00    +0.000 S 
ENDBRANCH  23  24
ENDBRANCH  22  23
ENDBRANCH  21  22
ENDBRANCH  20  21
ENDBRANCH   2  20
TORSDOF 9
