
 OpenBabel03132514253D

 85 88  0  0  0  0  0  0  0  0999 V2000
    1.0217   -0.0924    0.0314 C   0  0  0  0  0  0  0  0  0  0  0  0
    0.5150    1.3102    0.3253 C   0  0  0  0  0  0  0  0  0  0  0  0
    1.0217    2.2660   -0.7425 C   0  0  0  0  0  0  0  0  0  0  0  0
    0.5150    1.8192   -2.1041 C   0  0  0  0  0  0  0  0  0  0  0  0
   -0.9050    1.8192   -2.1041 O   0  0  0  0  0  0  0  0  0  0  0  0
    1.0217    2.7750   -3.1719 C   0  0  0  0  0  0  0  0  0  0  0  0
    2.4417    2.7750   -3.1719 O   0  0  0  0  0  0  0  0  0  0  0  0
    0.5150    2.3282   -4.5335 C   0  0  0  0  0  0  0  0  0  0  0  0
   -1.0050    2.3282   -4.5335 C   0  0  0  0  0  0  0  0  0  0  0  0
    1.0217    3.2840   -5.6013 C   0  0  0  0  0  0  0  0  0  0  0  0
    0.9883    1.0178   -4.8081 O   0  0  0  0  0  0  0  0  0  0  0  0
   -1.0050    1.3102    0.3253 C   0  0  0  0  0  0  0  0  0  0  0  0
   -1.6594    2.3148    0.8515 C   0  0  0  0  0  0  0  0  0  0  0  0
   -0.9059    3.4704    1.4593 C   0  0  0  0  0  0  0  0  0  0  0  0
   -1.5444    3.8468    2.7980 C   0  0  0  0  0  0  0  0  0  0  0  0
   -2.9376    3.5765    2.7505 O   0  0  0  0  0  0  0  0  0  0  0  0
   -0.9033    3.0247    3.9181 C   0  0  0  0  0  0  0  0  0  0  0  0
   -1.5386    1.6587    3.9647 C   0  0  0  0  0  0  0  0  0  0  0  0
   -1.5071    1.2091    2.5130 C   0  0  0  0  0  0  0  0  0  0  0  0
   -2.9024    1.8309    4.6134 C   0  0  0  0  0  0  0  0  0  0  0  0
   -2.7294    2.3938    6.0147 C   0  0  0  0  0  0  0  0  0  0  0  0
   -2.0316    3.7419    5.9367 C   0  0  0  0  0  0  0  0  0  0  0  0
   -0.8711    3.8281    5.4258 O   0  0  0  0  0  0  0  0  0  0  0  0
    0.4347    0.4550    3.9640 C   0  0  0  0  0  0  0  0  0  0  0  0
    1.2453    1.7354    4.0819 C   0  0  0  0  0  0  0  0  0  0  0  0
    1.1686   -0.6758    4.6660 C   0  0  0  0  0  0  0  0  0  0  0  0
   -0.9257    0.6553    4.6117 C   0  0  0  0  0  0  0  0  0  0  0  0
   -1.5995   -0.6308    4.6221 C   0  0  0  0  0  0  0  0  0  0  0  0
   -0.7278   -1.6698    3.9130 C   0  0  0  0  0  0  0  0  0  0  0  0
   -1.2293   -1.8465    2.5322 C   0  0  0  0  0  0  0  0  0  0  0  0
   -1.8783   -3.1596    2.1261 C   0  0  0  0  0  0  0  0  0  0  0  0
   -0.6548   -1.0436    1.5894 C   0  0  0  0  0  0  0  0  0  0  0  0
    0.6851   -1.4054    2.2092 C   0  0  0  0  0  0  0  0  0  0  0  0
   -1.1123   -1.1613    0.1590 C   0  0  0  0  0  0  0  0  0  0  0  0
   -1.7583    0.1536   -0.2805 C   0  0  0  0  0  0  0  0  0  0  0  0
    0.6650   -0.4070   -0.9271 H   0  0  0  0  0  0  0  0  0  0  0  0
    0.6650   -0.7653    0.7830 H   0  0  0  0  0  0  0  0  0  0  0  0
    2.0917   -0.0924    0.0314 H   0  0  0  0  0  0  0  0  0  0  0  0
    0.8717    1.6247    1.2838 H   0  0  0  0  0  0  0  0  0  0  0  0
    0.6650    3.2534   -0.5356 H   0  0  0  0  0  0  0  0  0  0  0  0
    2.0917    2.2660   -0.7425 H   0  0  0  0  0  0  0  0  0  0  0  0
    0.8717    0.8318   -2.3110 H   0  0  0  0  0  0  0  0  0  0  0  0
   -1.2383    1.1904   -1.4017 H   0  0  0  0  0  0  0  0  0  0  0  0
    0.6650    3.7623   -2.9650 H   0  0  0  0  0  0  0  0  0  0  0  0
    2.7750    3.0689   -2.2761 H   0  0  0  0  0  0  0  0  0  0  0  0
   -1.3617    3.3155   -4.3267 H   0  0  0  0  0  0  0  0  0  0  0  0
   -1.3617    2.0136   -5.4921 H   0  0  0  0  0  0  0  0  0  0  0  0
   -1.3617    1.6553   -3.7819 H   0  0  0  0  0  0  0  0  0  0  0  0
    2.0917    3.2840   -5.6013 H   0  0  0  0  0  0  0  0  0  0  0  0
    0.6650    2.9694   -6.5598 H   0  0  0  0  0  0  0  0  0  0  0  0
    0.6650    4.2713   -5.3944 H   0  0  0  0  0  0  0  0  0  0  0  0
    0.6550    0.7239   -5.7039 H   0  0  0  0  0  0  0  0  0  0  0  0
   -0.9446    4.3097    0.7968 H   0  0  0  0  0  0  0  0  0  0  0  0
    0.1139    3.1878    1.6172 H   0  0  0  0  0  0  0  0  0  0  0  0
   -1.3893    4.8886    2.9867 H   0  0  0  0  0  0  0  0  0  0  0  0
   -3.0824    2.6028    2.5742 H   0  0  0  0  0  0  0  0  0  0  0  0
   -0.3883    3.7811    4.4727 H   0  0  0  0  0  0  0  0  0  0  0  0
   -1.9862    0.2565    2.4242 H   0  0  0  0  0  0  0  0  0  0  0  0
   -2.0216    1.9250    1.9067 H   0  0  0  0  0  0  0  0  0  0  0  0
   -0.4913    1.1293    2.1863 H   0  0  0  0  0  0  0  0  0  0  0  0
   -3.4929    2.5049    4.0287 H   0  0  0  0  0  0  0  0  0  0  0  0
   -3.3936    0.8820    4.6683 H   0  0  0  0  0  0  0  0  0  0  0  0
   -3.6894    2.5151    6.4714 H   0  0  0  0  0  0  0  0  0  0  0  0
   -2.1389    1.7198    6.5994 H   0  0  0  0  0  0  0  0  0  0  0  0
    1.3750    1.9816    5.1151 H   0  0  0  0  0  0  0  0  0  0  0  0
    2.2030    1.5945    3.6259 H   0  0  0  0  0  0  0  0  0  0  0  0
    0.7287    2.5315    3.5877 H   0  0  0  0  0  0  0  0  0  0  0  0
    1.2983   -0.4296    5.6992 H   0  0  0  0  0  0  0  0  0  0  0  0
    0.5980   -1.5771    4.5830 H   0  0  0  0  0  0  0  0  0  0  0  0
    2.1263   -0.8167    4.2100 H   0  0  0  0  0  0  0  0  0  0  0  0
   -0.8965    0.9620    5.6364 H   0  0  0  0  0  0  0  0  0  0  0  0
   -1.7676   -0.9370    5.6335 H   0  0  0  0  0  0  0  0  0  0  0  0
   -2.5375   -0.5460    4.1143 H   0  0  0  0  0  0  0  0  0  0  0  0
    0.2896   -1.3392    3.8920 H   0  0  0  0  0  0  0  0  0  0  0  0
   -0.7797   -2.6014    4.4369 H   0  0  0  0  0  0  0  0  0  0  0  0
   -1.1773   -3.9580    2.2526 H   0  0  0  0  0  0  0  0  0  0  0  0
   -2.7366   -3.3380    2.7396 H   0  0  0  0  0  0  0  0  0  0  0  0
   -2.1778   -3.1072    1.1002 H   0  0  0  0  0  0  0  0  0  0  0  0
    0.6984   -1.0985    3.2342 H   0  0  0  0  0  0  0  0  0  0  0  0
    0.8304   -2.4639    2.1519 H   0  0  0  0  0  0  0  0  0  0  0  0
    1.4696   -0.9084    1.6779 H   0  0  0  0  0  0  0  0  0  0  0  0
   -1.8265   -1.9539    0.0774 H   0  0  0  0  0  0  0  0  0  0  0  0
   -0.2714   -1.3724   -0.4681 H   0  0  0  0  0  0  0  0  0  0  0  0
   -2.7760    0.1789    0.0490 H   0  0  0  0  0  0  0  0  0  0  0  0
   -1.7272    0.2273   -1.3475 H   0  0  0  0  0  0  0  0  0  0  0  0
  1  2  1  0  0  0  0
  1 36  1  0  0  0  0
  1 37  1  0  0  0  0
  1 38  1  0  0  0  0
  2  3  1  0  0  0  0
  2 12  1  0  0  0  0
  2 39  1  0  0  0  0
  3  4  1  0  0  0  0
  3 40  1  0  0  0  0
  3 41  1  0  0  0  0
  4  5  1  0  0  0  0
  4  6  1  0  0  0  0
  4 42  1  0  0  0  0
  5 43  1  0  0  0  0
  6  7  1  0  0  0  0
  6  8  1  0  0  0  0
  6 44  1  0  0  0  0
  7 45  1  0  0  0  0
  8  9  1  0  0  0  0
  8 10  1  0  0  0  0
  8 11  1  0  0  0  0
  9 46  1  0  0  0  0
  9 47  1  0  0  0  0
  9 48  1  0  0  0  0
 10 49  1  0  0  0  0
 10 50  1  0  0  0  0
 10 51  1  0  0  0  0
 11 52  1  0  0  0  0
 12 13  2  0  0  0  0
 12 35  1  0  0  0  0
 13 14  1  0  0  0  0
 13 32  1  0  0  0  0
 14 15  1  0  0  0  0
 14 53  1  0  0  0  0
 14 54  1  0  0  0  0
 15 16  1  0  0  0  0
 15 17  1  0  0  0  0
 15 55  1  0  0  0  0
 16 56  1  0  0  0  0
 17 18  1  0  0  0  0
 17 30  1  0  0  0  0
 17 57  1  0  0  0  0
 18 19  1  0  0  0  0
 18 20  1  0  0  0  0
 18 27  1  0  0  0  0
 19 58  1  0  0  0  0
 19 59  1  0  0  0  0
 19 60  1  0  0  0  0
 20 21  1  0  0  0  0
 20 61  1  0  0  0  0
 20 62  1  0  0  0  0
 21 22  1  0  0  0  0
 21 63  1  0  0  0  0
 21 64  1  0  0  0  0
 22 23  2  0  0  0  0
 22 24  1  0  0  0  0
 24 25  1  0  0  0  0
 24 26  1  0  0  0  0
 24 27  1  0  0  0  0
 25 65  1  0  0  0  0
 25 66  1  0  0  0  0
 25 67  1  0  0  0  0
 26 68  1  0  0  0  0
 26 69  1  0  0  0  0
 26 70  1  0  0  0  0
 27 28  1  0  0  0  0
 27 71  1  0  0  0  0
 28 29  1  0  0  0  0
 28 72  1  0  0  0  0
 28 73  1  0  0  0  0
 29 30  1  0  0  0  0
 29 74  1  0  0  0  0
 29 75  1  0  0  0  0
 30 31  1  0  0  0  0
 30 32  1  0  0  0  0
 31 76  1  0  0  0  0
 31 77  1  0  0  0  0
 31 78  1  0  0  0  0
 32 33  1  0  0  0  0
 32 34  1  0  0  0  0
 33 79  1  0  0  0  0
 33 80  1  0  0  0  0
 33 81  1  0  0  0  0
 34 35  1  0  0  0  0
 34 82  1  0  0  0  0
 34 83  1  0  0  0  0
 35 84  1  0  0  0  0
 35 85  1  0  0  0  0
M  END
