
 OpenBabel03132514253D

 50 49  0  0  0  0  0  0  0  0999 V2000
    1.0165    0.0984   -0.0063 C   0  0  0  0  0  0  0  0  0  0  0  0
    0.5098    1.5296   -0.0810 C   0  0  0  0  0  0  0  0  0  0  0  0
    1.0165    2.1804   -1.3577 C   0  0  0  0  0  0  0  0  0  0  0  0
    0.1325    2.6501   -2.2789 C   0  0  0  0  0  0  0  0  0  0  0  0
    0.6391    3.3010   -3.5556 C   0  0  0  0  0  0  0  0  0  0  0  0
    0.1325    2.5207   -4.7577 C   0  0  0  0  0  0  0  0  0  0  0  0
   -0.6497    3.1343   -5.6864 C   0  0  0  0  0  0  0  0  0  0  0  0
   -1.1563    2.3541   -6.8884 C   0  0  0  0  0  0  0  0  0  0  0  0
   -2.6763    2.3541   -6.8884 C   0  0  0  0  0  0  0  0  0  0  0  0
   -3.3565    2.8892   -7.9380 C   0  0  0  0  0  0  0  0  0  0  0  0
   -4.8765    2.8892   -7.9380 C   0  0  0  0  0  0  0  0  0  0  0  0
   -5.3832    4.3203   -8.0127 C   0  0  0  0  0  0  0  0  0  0  0  0
   -4.8765    4.9712   -9.2895 C   0  0  0  0  0  0  0  0  0  0  0  0
   -5.3832    4.1909  -10.4915 C   0  0  0  0  0  0  0  0  0  0  0  0
   -6.9032    4.1909  -10.4915 C   0  0  0  0  0  0  0  0  0  0  0  0
   -7.4099    5.6220  -10.5662 C   0  0  0  0  0  0  0  0  0  0  0  0
   -6.9032    6.2729  -11.8429 C   0  0  0  0  0  0  0  0  0  0  0  0
   -7.4099    5.4927  -13.0450 C   0  0  0  0  0  0  0  0  0  0  0  0
   -8.1406    6.0659  -13.9126 O   0  0  0  0  0  0  0  0  0  0  0  0
   -7.0668    4.1233  -13.1985 O   0  0  0  0  0  0  0  0  0  0  0  0
    0.6598   -0.4508   -0.8524 H   0  0  0  0  0  0  0  0  0  0  0  0
    0.6598   -0.3598    0.8925 H   0  0  0  0  0  0  0  0  0  0  0  0
    2.0865    0.0984   -0.0063 H   0  0  0  0  0  0  0  0  0  0  0  0
   -0.5602    1.5295   -0.0810 H   0  0  0  0  0  0  0  0  0  0  0  0
    0.8665    2.0788    0.7652 H   0  0  0  0  0  0  0  0  0  0  0  0
    2.0685    2.2692   -1.5319 H   0  0  0  0  0  0  0  0  0  0  0  0
   -0.9195    2.5613   -2.1047 H   0  0  0  0  0  0  0  0  0  0  0  0
    0.2825    4.3084   -3.6082 H   0  0  0  0  0  0  0  0  0  0  0  0
    1.7091    3.3010   -3.5556 H   0  0  0  0  0  0  0  0  0  0  0  0
    0.3909    1.4889   -4.8734 H   0  0  0  0  0  0  0  0  0  0  0  0
   -0.9082    4.1661   -5.5707 H   0  0  0  0  0  0  0  0  0  0  0  0
   -0.7997    2.8122   -7.7872 H   0  0  0  0  0  0  0  0  0  0  0  0
   -0.7997    1.3466   -6.8359 H   0  0  0  0  0  0  0  0  0  0  0  0
   -3.2113    1.9332   -6.0629 H   0  0  0  0  0  0  0  0  0  0  0  0
   -2.8215    3.3100   -8.7636 H   0  0  0  0  0  0  0  0  0  0  0  0
   -5.2332    2.3399   -8.7842 H   0  0  0  0  0  0  0  0  0  0  0  0
   -5.2332    2.4310   -7.0393 H   0  0  0  0  0  0  0  0  0  0  0  0
   -6.4532    4.3203   -8.0127 H   0  0  0  0  0  0  0  0  0  0  0  0
   -5.0265    4.8695   -7.1666 H   0  0  0  0  0  0  0  0  0  0  0  0
   -5.2332    5.9786   -9.3420 H   0  0  0  0  0  0  0  0  0  0  0  0
   -3.8065    4.9712   -9.2895 H   0  0  0  0  0  0  0  0  0  0  0  0
   -5.0266    4.6491  -11.3903 H   0  0  0  0  0  0  0  0  0  0  0  0
   -5.0265    3.1835  -10.4389 H   0  0  0  0  0  0  0  0  0  0  0  0
   -7.2599    3.6417  -11.3377 H   0  0  0  0  0  0  0  0  0  0  0  0
   -7.2599    3.7327   -9.5928 H   0  0  0  0  0  0  0  0  0  0  0  0
   -8.4799    5.6220  -10.5662 H   0  0  0  0  0  0  0  0  0  0  0  0
   -7.0532    6.1713   -9.7200 H   0  0  0  0  0  0  0  0  0  0  0  0
   -7.2599    7.2804  -11.8955 H   0  0  0  0  0  0  0  0  0  0  0  0
   -5.8332    6.2729  -11.8429 H   0  0  0  0  0  0  0  0  0  0  0  0
   -7.4002    3.6100  -13.9894 H   0  0  0  0  0  0  0  0  0  0  0  0
  1  2  1  0  0  0  0
  1 21  1  0  0  0  0
  1 22  1  0  0  0  0
  1 23  1  0  0  0  0
  2  3  1  0  0  0  0
  2 24  1  0  0  0  0
  2 25  1  0  0  0  0
  3  4  2  0  0  0  0
  3 26  1  0  0  0  0
  4  5  1  0  0  0  0
  4 27  1  0  0  0  0
  5  6  1  0  0  0  0
  5 28  1  0  0  0  0
  5 29  1  0  0  0  0
  6  7  2  0  0  0  0
  6 30  1  0  0  0  0
  7  8  1  0  0  0  0
  7 31  1  0  0  0  0
  8  9  1  0  0  0  0
  8 32  1  0  0  0  0
  8 33  1  0  0  0  0
  9 10  2  0  0  0  0
  9 34  1  0  0  0  0
 10 11  1  0  0  0  0
 10 35  1  0  0  0  0
 11 12  1  0  0  0  0
 11 36  1  0  0  0  0
 11 37  1  0  0  0  0
 12 13  1  0  0  0  0
 12 38  1  0  0  0  0
 12 39  1  0  0  0  0
 13 14  1  0  0  0  0
 13 40  1  0  0  0  0
 13 41  1  0  0  0  0
 14 15  1  0  0  0  0
 14 42  1  0  0  0  0
 14 43  1  0  0  0  0
 15 16  1  0  0  0  0
 15 44  1  0  0  0  0
 15 45  1  0  0  0  0
 16 17  1  0  0  0  0
 16 46  1  0  0  0  0
 16 47  1  0  0  0  0
 17 18  1  0  0  0  0
 17 48  1  0  0  0  0
 17 49  1  0  0  0  0
 18 19  2  0  0  0  0
 18 20  1  0  0  0  0
 20 50  1  0  0  0  0
M  END
