REMARK  Name = 
REMARK  8 active torsions:
REMARK  status: ('A' for Active; 'I' for Inactive)
REMARK    1  A    between atoms: C_6  and  C_7
REMARK    2  A    between atoms: C_6  and  C_8
REMARK    3  A    between atoms: C_8  and  O_9
REMARK    4  A    between atoms: C_10  and  O_11
REMARK    5  A    between atoms: C_14  and  C_15
REMARK    6  A    between atoms: C_16  and  C_17
REMARK    7  A    between atoms: C_17  and  C_18
REMARK    8  A    between atoms: C_24  and  O_25
REMARK                            x       y       z     vdW  Elec       q    Type
REMARK                         _______ _______ _______ _____ _____    ______ ____
ROOT
ATOM      1  C   UNL     1       0.955  -0.068  -0.058  0.00  0.00    +0.000 C 
ATOM      2  C   UNL     1       0.275   1.086  -0.297  0.00  0.00    +0.000 C 
ATOM      3  C   UNL     1      -1.188   1.524  -0.388  0.00  0.00    +0.000 C 
ATOM      4  C   UNL     1      -1.425   2.237  -1.721  0.00  0.00    +0.000 C 
ATOM      5  C   UNL     1      -0.518   3.465  -1.811  0.00  0.00    +0.000 C 
ATOM      6  C   UNL     1      -0.755   4.178  -3.143  0.00  0.00    +0.000 C 
ATOM      7  C   UNL     1      -0.439   3.229  -4.288  0.00  0.00    +0.000 C 
ATOM      8  C   UNL     1       0.152   5.406  -3.233  0.00  0.00    +0.000 C 
ATOM      9  C   UNL     1       1.615   4.969  -3.143  0.00  0.00    +0.000 C 
ATOM     10  C   UNL     1       1.852   4.255  -1.810  0.00  0.00    +0.000 C 
ATOM     11  C   UNL     1       0.945   3.027  -1.720  0.00  0.00    +0.000 C 
ATOM     12  C   UNL     1       1.261   2.079  -2.865  0.00  0.00    +0.000 C 
ATOM     13  C   UNL     1       1.182   2.314  -0.387  0.00  0.00    +0.000 C 
ENDROOT
BRANCH   8  14
ATOM     14  O   UNL     1      -0.068   6.067  -4.471  0.00  0.00    +0.000 OA
ATOM     15  H   UNL     1       0.140   5.443  -5.224  0.00  0.00    +0.000 HD
ENDBRANCH   8  14
BRANCH   6  16
ATOM     16  C   UNL     1      -2.208   4.614  -3.233  0.00  0.00    +0.000 C 
BRANCH  16  17
ATOM     17  O   UNL     1      -2.504   5.500  -2.164  0.00  0.00    +0.000 OA
ATOM     18  H   UNL     1      -2.349   5.034  -1.292  0.00  0.00    +0.000 HD
ENDBRANCH  16  17
ENDBRANCH   6  16
BRANCH  13  19
ATOM     19  C   UNL     1       0.866   3.263   0.758  0.00  0.00    +0.000 C 
BRANCH  19  20
ATOM     20  C   UNL     1       1.101   2.555   2.082  0.00  0.00    +0.000 C 
ATOM     21  C   UNL     1       2.012   3.047   2.964  0.00  0.00    +0.000 C 
ATOM     22  C   UNL     1       2.855   4.336   2.799  0.00  0.00    +0.000 C 
ATOM     23  O   UNL     1       2.522   5.440   2.266  0.00  0.00    +0.000 OA
ATOM     24  O   UNL     1       4.209   3.941   3.446  0.00  0.00    +0.000 OA
ATOM     25  C   UNL     1       3.811   3.072   4.657  0.00  0.00    +0.000 C 
ATOM     26  C   UNL     1       2.414   2.504   4.351  0.00  0.00    +0.000 C 
BRANCH  26  27
ATOM     27  O   UNL     1       1.476   2.890   5.343  0.00  0.00    +0.000 OA
ATOM     28  H   UNL     1       1.424   3.888   5.383  0.00  0.00    +0.000 HD
ENDBRANCH  26  27
ENDBRANCH  19  20
ENDBRANCH  13  19
TORSDOF 6
