
 OpenBabel03132514253D

 55 57  0  0  0  0  0  0  0  0999 V2000
    0.9548   -0.0676   -0.0582 C   0  0  0  0  0  0  0  0  0  0  0  0
    0.2746    1.0860   -0.2974 C   0  0  0  0  0  0  0  0  0  0  0  0
   -1.1879    1.5242   -0.3883 C   0  0  0  0  0  0  0  0  0  0  0  0
   -1.4251    2.2369   -1.7208 C   0  0  0  0  0  0  0  0  0  0  0  0
   -0.5179    3.4652   -1.8109 C   0  0  0  0  0  0  0  0  0  0  0  0
   -0.7550    4.1778   -3.1434 C   0  0  0  0  0  0  0  0  0  0  0  0
   -0.4388    3.2294   -4.2884 C   0  0  0  0  0  0  0  0  0  0  0  0
   -2.2084    4.6137   -3.2332 C   0  0  0  0  0  0  0  0  0  0  0  0
   -2.5038    5.4998   -2.1636 O   0  0  0  0  0  0  0  0  0  0  0  0
    0.1522    5.4061   -3.2335 C   0  0  0  0  0  0  0  0  0  0  0  0
   -0.0681    6.0668   -4.4709 O   0  0  0  0  0  0  0  0  0  0  0  0
    1.6149    4.9686   -3.1432 C   0  0  0  0  0  0  0  0  0  0  0  0
    1.8518    4.2552   -1.8100 C   0  0  0  0  0  0  0  0  0  0  0  0
    0.9446    3.0269   -1.7200 C   0  0  0  0  0  0  0  0  0  0  0  0
    1.2611    2.0785   -2.8649 C   0  0  0  0  0  0  0  0  0  0  0  0
    1.1818    2.3143   -0.3874 C   0  0  0  0  0  0  0  0  0  0  0  0
    0.8655    3.2627    0.7576 C   0  0  0  0  0  0  0  0  0  0  0  0
    1.1012    2.5546    2.0818 C   0  0  0  0  0  0  0  0  0  0  0  0
    2.0124    3.0471    2.9637 C   0  0  0  0  0  0  0  0  0  0  0  0
    2.8553    4.3356    2.7986 C   0  0  0  0  0  0  0  0  0  0  0  0
    2.5215    5.4403    2.2662 O   0  0  0  0  0  0  0  0  0  0  0  0
    4.2094    3.9407    3.4458 O   0  0  0  0  0  0  0  0  0  0  0  0
    3.8114    3.0719    4.6574 C   0  0  0  0  0  0  0  0  0  0  0  0
    2.4144    2.5040    4.3505 C   0  0  0  0  0  0  0  0  0  0  0  0
    1.4755    2.8900    5.3434 O   0  0  0  0  0  0  0  0  0  0  0  0
    0.4198   -0.9750    0.1300 H   0  0  0  0  0  0  0  0  0  0  0  0
    2.0248   -0.0676   -0.0582 H   0  0  0  0  0  0  0  0  0  0  0  0
   -1.8222    0.6648   -0.3257 H   0  0  0  0  0  0  0  0  0  0  0  0
   -1.4109    2.1917    0.4177 H   0  0  0  0  0  0  0  0  0  0  0  0
   -1.2025    1.5693   -2.5269 H   0  0  0  0  0  0  0  0  0  0  0  0
   -2.4482    2.5437   -1.7840 H   0  0  0  0  0  0  0  0  0  0  0  0
   -0.7406    4.1328   -1.0049 H   0  0  0  0  0  0  0  0  0  0  0  0
   -1.0734    2.3702   -4.2255 H   0  0  0  0  0  0  0  0  0  0  0  0
   -0.6047    3.7279   -5.2206 H   0  0  0  0  0  0  0  0  0  0  0  0
    0.5843    2.9226   -4.2252 H   0  0  0  0  0  0  0  0  0  0  0  0
   -2.3744    5.1122   -4.1654 H   0  0  0  0  0  0  0  0  0  0  0  0
   -2.8430    3.7546   -3.1702 H   0  0  0  0  0  0  0  0  0  0  0  0
   -2.3487    5.0339   -1.2924 H   0  0  0  0  0  0  0  0  0  0  0  0
   -0.0706    6.0737   -2.4275 H   0  0  0  0  0  0  0  0  0  0  0  0
    0.1403    5.4426   -5.2238 H   0  0  0  0  0  0  0  0  0  0  0  0
    1.8385    4.3019   -3.9496 H   0  0  0  0  0  0  0  0  0  0  0  0
    2.2489    5.8283   -3.2054 H   0  0  0  0  0  0  0  0  0  0  0  0
    2.8749    3.9481   -1.7470 H   0  0  0  0  0  0  0  0  0  0  0  0
    1.6292    4.9227   -1.0039 H   0  0  0  0  0  0  0  0  0  0  0  0
    2.2842    1.7718   -2.8015 H   0  0  0  0  0  0  0  0  0  0  0  0
    0.6265    1.2193   -2.8020 H   0  0  0  0  0  0  0  0  0  0  0  0
    1.0952    2.5769   -3.7971 H   0  0  0  0  0  0  0  0  0  0  0  0
    2.2049    2.0074   -0.3242 H   0  0  0  0  0  0  0  0  0  0  0  0
    1.5001    4.1219    0.6947 H   0  0  0  0  0  0  0  0  0  0  0  0
   -0.1576    3.5695    0.6943 H   0  0  0  0  0  0  0  0  0  0  0  0
    0.5505    1.6688    2.3202 H   0  0  0  0  0  0  0  0  0  0  0  0
    3.8046    3.6472    5.5595 H   0  0  0  0  0  0  0  0  0  0  0  0
    4.5136    2.2750    4.7871 H   0  0  0  0  0  0  0  0  0  0  0  0
    2.4463    1.4346    4.3331 H   0  0  0  0  0  0  0  0  0  0  0  0
    1.4236    3.8879    5.3831 H   0  0  0  0  0  0  0  0  0  0  0  0
  1  2  2  0  0  0  0
  1 26  1  0  0  0  0
  1 27  1  0  0  0  0
  2  3  1  0  0  0  0
  2 16  1  0  0  0  0
  3  4  1  0  0  0  0
  3 28  1  0  0  0  0
  3 29  1  0  0  0  0
  4  5  1  0  0  0  0
  4 30  1  0  0  0  0
  4 31  1  0  0  0  0
  5  6  1  0  0  0  0
  5 14  1  0  0  0  0
  5 32  1  0  0  0  0
  6  7  1  0  0  0  0
  6  8  1  0  0  0  0
  6 10  1  0  0  0  0
  7 33  1  0  0  0  0
  7 34  1  0  0  0  0
  7 35  1  0  0  0  0
  8  9  1  0  0  0  0
  8 36  1  0  0  0  0
  8 37  1  0  0  0  0
  9 38  1  0  0  0  0
 10 11  1  0  0  0  0
 10 12  1  0  0  0  0
 10 39  1  0  0  0  0
 11 40  1  0  0  0  0
 12 13  1  0  0  0  0
 12 41  1  0  0  0  0
 12 42  1  0  0  0  0
 13 14  1  0  0  0  0
 13 43  1  0  0  0  0
 13 44  1  0  0  0  0
 14 15  1  0  0  0  0
 14 16  1  0  0  0  0
 15 45  1  0  0  0  0
 15 46  1  0  0  0  0
 15 47  1  0  0  0  0
 16 17  1  0  0  0  0
 16 48  1  0  0  0  0
 17 18  1  0  0  0  0
 17 49  1  0  0  0  0
 17 50  1  0  0  0  0
 18 19  2  0  0  0  0
 18 51  1  0  0  0  0
 19 20  1  0  0  0  0
 19 24  1  0  0  0  0
 20 21  2  0  0  0  0
 20 22  1  0  0  0  0
 22 23  1  0  0  0  0
 23 24  1  0  0  0  0
 23 52  1  0  0  0  0
 23 53  1  0  0  0  0
 24 25  1  0  0  0  0
 24 54  1  0  0  0  0
 25 55  1  0  0  0  0
M  END
