REMARK  Name = 
REMARK  23 active torsions:
REMARK  status: ('A' for Active; 'I' for Inactive)
REMARK    1  A    between atoms: C_1  and  C_2
REMARK    2  A    between atoms: C_2  and  C_3
REMARK    3  A    between atoms: C_2  and  O_4
REMARK    4  A    between atoms: C_2  and  C_5
REMARK    5  A    between atoms: C_8  and  C_9
REMARK    6  A    between atoms: C_8  and  C_10
REMARK    7  A    between atoms: C_11  and  O_12
REMARK    8  A    between atoms: C_14  and  C_15
REMARK    9  A    between atoms: C_18  and  O_19
REMARK   10  A    between atoms: O_19  and  C_20
REMARK   11  A    between atoms: C_22  and  C_23
REMARK   12  A    between atoms: C_23  and  O_24
REMARK   13  A    between atoms: C_25  and  O_26
REMARK   14  A    between atoms: C_27  and  O_28
REMARK   15  A    between atoms: C_29  and  O_30
REMARK   16  A    between atoms: C_32  and  C_33
REMARK   17  A    between atoms: C_32  and  C_34
REMARK   18  A    between atoms: C_35  and  O_36
REMARK   19  A    between atoms: O_36  and  C_37
REMARK   20  A    between atoms: C_40  and  O_41
REMARK   21  A    between atoms: C_42  and  O_43
REMARK   22  A    between atoms: C_44  and  O_45
REMARK   23  A    between atoms: C_53  and  C_54
REMARK                            x       y       z     vdW  Elec       q    Type
REMARK                         _______ _______ _______ _____ _____    ______ ____
ROOT
ATOM      1  C   UNL     1       1.620  -3.615   3.723  0.00  0.00    +0.000 C 
ATOM      2  C   UNL     1       2.093  -4.568   2.597  0.00  0.00    +0.000 C 
ATOM      3  C   UNL     1       3.468  -5.059   3.122  0.00  0.00    +0.000 C 
ATOM      4  C   UNL     1       4.082  -3.814   3.797  0.00  0.00    +0.000 C 
ATOM      5  C   UNL     1       5.050  -3.106   2.863  0.00  0.00    +0.000 C 
ATOM      6  C   UNL     1       4.856  -4.220   5.040  0.00  0.00    +0.000 C 
ATOM      7  C   UNL     1       5.437  -2.999   5.707  0.00  0.00    +0.000 C 
ATOM      8  C   UNL     1       4.514  -1.826   5.746  0.00  0.00    +0.000 C 
ATOM      9  C   UNL     1       3.555  -1.843   6.830  0.00  0.00    +0.000 C 
ATOM     10  C   UNL     1       4.078  -1.834   8.197  0.00  0.00    +0.000 C 
ATOM     11  C   UNL     1       5.240  -0.863   8.330  0.00  0.00    +0.000 C 
ATOM     12  C   UNL     1       4.584  -3.217   8.573  0.00  0.00    +0.000 C 
ATOM     13  C   UNL     1       2.914  -1.429   9.117  0.00  0.00    +0.000 C 
ATOM     14  C   UNL     1       1.713  -2.353   8.917  0.00  0.00    +0.000 C 
ATOM     15  C   UNL     1       1.346  -2.455   7.426  0.00  0.00    +0.000 C 
ATOM     16  C   UNL     1       2.609  -2.856   6.741  0.00  0.00    +0.000 C 
ATOM     17  C   UNL     1       2.775  -4.066   6.347  0.00  0.00    +0.000 C 
ATOM     18  C   UNL     1       3.913  -4.959   5.971  0.00  0.00    +0.000 C 
ATOM     19  C   UNL     1       4.400  -6.398   6.021  0.00  0.00    +0.000 C 
ATOM     20  C   UNL     1       2.881  -2.677   5.682  0.00  0.00    +0.000 C 
ATOM     21  C   UNL     1       2.907  -2.897   4.178  0.00  0.00    +0.000 C 
ATOM     22  C   UNL     1       3.038  -1.535   3.516  0.00  0.00    +0.000 C 
ENDROOT
BRANCH   1  26
ATOM     23  C   UNL     1       0.977  -0.372   2.442  0.00  0.00    +0.000 C 
ATOM     24  C   UNL     1      -0.093  -0.334   3.562  0.00  0.00    +0.000 C 
ATOM     25  C   UNL     1       0.177  -1.652   4.334  0.00  0.00    +0.000 C 
ATOM     26  C   UNL     1       0.535  -2.671   3.232  0.00  0.00    +0.000 C 
ATOM     27  C   UNL     1      -0.671  -3.515   2.853  0.00  0.00    +0.000 C 
ATOM     28  O   UNL     1       1.043  -1.857   2.029  0.00  0.00    +0.000 OA
BRANCH  23  30
ATOM     29  C   UNL     1       0.977  -0.094  -0.024  0.00  0.00    +0.000 C 
ATOM     30  C   UNL     1       0.470   0.479   1.289  0.00  0.00    +0.000 C 
ATOM     31  C   UNL     1       0.976   1.903   1.450  0.00  0.00    +0.000 C 
BRANCH  30  32
ATOM     32  O   UNL     1      -0.950   0.479   1.289  0.00  0.00    +0.000 OA
ATOM     33  H   UNL     1      -1.284   1.039   0.531  0.00  0.00    +0.000 HD
ENDBRANCH  30  32
ENDBRANCH  23  30
ENDBRANCH   1  26
BRANCH   2  34
ATOM     34  O   UNL     1       1.181  -5.623   2.332  0.00  0.00    +0.000 OA
ATOM     35  H   UNL     1       1.036  -6.157   3.165  0.00  0.00    +0.000 HD
ENDBRANCH   2  34
BRANCH  13  36
ATOM     36  O   UNL     1       2.524  -0.101   8.798  0.00  0.00    +0.000 OA
BRANCH  36  37
ATOM     37  C   UNL     1       2.102  -0.045   7.443  0.00  0.00    +0.000 C 
ATOM     38  O   UNL     1       3.251  -0.479   6.530  0.00  0.00    +0.000 OA
ATOM     39  C   UNL     1       3.600  -1.835   6.816  0.00  0.00    +0.000 C 
ATOM     40  C   UNL     1       2.542  -2.769   6.596  0.00  0.00    +0.000 C 
ATOM     41  C   UNL     1       1.364  -2.428   7.512  0.00  0.00    +0.000 C 
ATOM     42  C   UNL     1       0.913  -0.990   7.237  0.00  0.00    +0.000 C 
BRANCH  42  43
ATOM     43  O   UNL     1      -0.138  -0.638   8.125  0.00  0.00    +0.000 OA
ATOM     44  H   UNL     1       0.185  -0.711   9.069  0.00  0.00    +0.000 HD
ENDBRANCH  42  43
BRANCH  41  45
ATOM     45  O   UNL     1       1.762  -2.552   8.869  0.00  0.00    +0.000 OA
ATOM     46  H   UNL     1       2.519  -1.925   9.053  0.00  0.00    +0.000 HD
ENDBRANCH  41  45
BRANCH  40  47
ATOM     47  O   UNL     1       3.000  -4.081   6.883  0.00  0.00    +0.000 OA
ATOM     48  H   UNL     1       3.295  -4.130   7.838  0.00  0.00    +0.000 HD
ENDBRANCH  40  47
ENDBRANCH  36  37
ENDBRANCH  13  36
BRANCH   8  49
ATOM     49  O   UNL     1       3.758  -1.873   4.544  0.00  0.00    +0.000 OA
BRANCH  49  50
ATOM     50  C   UNL     1       3.007  -3.077   4.504  0.00  0.00    +0.000 C 
ATOM     51  O   UNL     1       2.815  -4.389   3.740  0.00  0.00    +0.000 OA
ATOM     52  C   UNL     1       3.082  -5.491   4.610  0.00  0.00    +0.000 C 
ATOM     53  C   UNL     1       2.217  -5.560   5.745  0.00  0.00    +0.000 C 
ATOM     54  C   UNL     1       2.384  -4.295   6.591  0.00  0.00    +0.000 C 
ATOM     55  C   UNL     1       2.082  -3.068   5.726  0.00  0.00    +0.000 C 
BRANCH  55  56
ATOM     56  O   UNL     1       2.296  -1.885   6.481  0.00  0.00    +0.000 OA
ATOM     57  H   UNL     1       3.248  -1.851   6.784  0.00  0.00    +0.000 HD
ENDBRANCH  55  56
BRANCH  54  58
ATOM     58  O   UNL     1       3.716  -4.220   7.078  0.00  0.00    +0.000 OA
ATOM     59  H   UNL     1       4.352  -4.191   6.307  0.00  0.00    +0.000 HD
ENDBRANCH  54  58
BRANCH  53  60
ATOM     60  O   UNL     1       2.549  -6.699   6.525  0.00  0.00    +0.000 OA
ATOM     61  H   UNL     1       3.498  -6.627   6.832  0.00  0.00    +0.000 HD
ENDBRANCH  53  60
BRANCH  52  62
ATOM     62  C   UNL     1       4.491  -5.296   5.144  0.00  0.00    +0.000 C 
BRANCH  62  63
ATOM     63  O   UNL     1       4.828  -6.380   5.998  0.00  0.00    +0.000 OA
ATOM     64  H   UNL     1       4.183  -6.414   6.762  0.00  0.00    +0.000 HD
ENDBRANCH  62  63
ENDBRANCH  52  62
ENDBRANCH  49  50
ENDBRANCH   8  49
TORSDOF 16
