
 OpenBabel03132514253D

123130  0  0  0  0  0  0  0  0999 V2000
    0.9765   -0.0941   -0.0242 C   0  0  0  0  0  0  0  0  0  0  0  0
    0.4698    0.4789    1.2894 C   0  0  0  0  0  0  0  0  0  0  0  0
    0.9764    1.9030    1.4498 C   0  0  0  0  0  0  0  0  0  0  0  0
   -0.9502    0.4789    1.2894 O   0  0  0  0  0  0  0  0  0  0  0  0
    0.9765   -0.3721    2.4424 C   0  0  0  0  0  0  0  0  0  0  0  0
   -0.0930   -0.3339    3.5615 C   0  0  0  0  0  0  0  0  0  0  0  0
    0.1771   -1.6523    4.3344 C   0  0  0  0  0  0  0  0  0  0  0  0
    0.5348   -2.6714    3.2323 C   0  0  0  0  0  0  0  0  0  0  0  0
   -0.6713   -3.5152    2.8532 C   0  0  0  0  0  0  0  0  0  0  0  0
    1.6204   -3.6154    3.7229 C   0  0  0  0  0  0  0  0  0  0  0  0
    2.0926   -4.5679    2.5971 C   0  0  0  0  0  0  0  0  0  0  0  0
    1.1806   -5.6235    2.3316 O   0  0  0  0  0  0  0  0  0  0  0  0
    3.4680   -5.0587    3.1223 C   0  0  0  0  0  0  0  0  0  0  0  0
    4.0822   -3.8142    3.7969 C   0  0  0  0  0  0  0  0  0  0  0  0
    5.0503   -3.1059    2.8634 C   0  0  0  0  0  0  0  0  0  0  0  0
    4.8563   -4.2198    5.0405 C   0  0  0  0  0  0  0  0  0  0  0  0
    5.4369   -2.9989    5.7066 C   0  0  0  0  0  0  0  0  0  0  0  0
    4.5139   -1.8264    5.7456 C   0  0  0  0  0  0  0  0  0  0  0  0
    3.7584   -1.8732    4.5442 O   0  0  0  0  0  0  0  0  0  0  0  0
    3.0066   -3.0772    4.5044 C   0  0  0  0  0  0  0  0  0  0  0  0
    2.8147   -4.3889    3.7395 O   0  0  0  0  0  0  0  0  0  0  0  0
    3.0816   -5.4907    4.6097 C   0  0  0  0  0  0  0  0  0  0  0  0
    4.4913   -5.2963    5.1437 C   0  0  0  0  0  0  0  0  0  0  0  0
    4.8276   -6.3797    5.9979 O   0  0  0  0  0  0  0  0  0  0  0  0
    2.2167   -5.5598    5.7449 C   0  0  0  0  0  0  0  0  0  0  0  0
    2.5487   -6.6991    6.5247 O   0  0  0  0  0  0  0  0  0  0  0  0
    2.3844   -4.2955    6.5910 C   0  0  0  0  0  0  0  0  0  0  0  0
    3.7161   -4.2198    7.0781 O   0  0  0  0  0  0  0  0  0  0  0  0
    2.0815   -3.0681    5.7258 C   0  0  0  0  0  0  0  0  0  0  0  0
    2.2961   -1.8847    6.4808 O   0  0  0  0  0  0  0  0  0  0  0  0
    3.5555   -1.8429    6.8295 C   0  0  0  0  0  0  0  0  0  0  0  0
    4.0782   -1.8338    8.1975 C   0  0  0  0  0  0  0  0  0  0  0  0
    5.2399   -0.8625    8.3297 C   0  0  0  0  0  0  0  0  0  0  0  0
    4.5842   -3.2170    8.5730 C   0  0  0  0  0  0  0  0  0  0  0  0
    2.9144   -1.4286    9.1175 C   0  0  0  0  0  0  0  0  0  0  0  0
    2.5242   -0.1013    8.7976 O   0  0  0  0  0  0  0  0  0  0  0  0
    2.1019   -0.0455    7.4431 C   0  0  0  0  0  0  0  0  0  0  0  0
    3.2510   -0.4789    6.5298 O   0  0  0  0  0  0  0  0  0  0  0  0
    3.6005   -1.8349    6.8157 C   0  0  0  0  0  0  0  0  0  0  0  0
    2.5415   -2.7686    6.5962 C   0  0  0  0  0  0  0  0  0  0  0  0
    3.0004   -4.0814    6.8833 O   0  0  0  0  0  0  0  0  0  0  0  0
    1.3636   -2.4278    7.5121 C   0  0  0  0  0  0  0  0  0  0  0  0
    1.7623   -2.5521    8.8693 O   0  0  0  0  0  0  0  0  0  0  0  0
    0.9129   -0.9898    7.2370 C   0  0  0  0  0  0  0  0  0  0  0  0
   -0.1378   -0.6385    8.1253 O   0  0  0  0  0  0  0  0  0  0  0  0
    1.7131   -2.3527    8.9168 C   0  0  0  0  0  0  0  0  0  0  0  0
    1.3459   -2.4550    7.4260 C   0  0  0  0  0  0  0  0  0  0  0  0
    2.6089   -2.8556    6.7410 C   0  0  0  0  0  0  0  0  0  0  0  0
    2.7745   -4.0655    6.3469 C   0  0  0  0  0  0  0  0  0  0  0  0
    3.9125   -4.9589    5.9715 C   0  0  0  0  0  0  0  0  0  0  0  0
    4.4001   -6.3977    6.0210 C   0  0  0  0  0  0  0  0  0  0  0  0
    2.8805   -2.6767    5.6823 C   0  0  0  0  0  0  0  0  0  0  0  0
    2.9071   -2.8967    4.1785 C   0  0  0  0  0  0  0  0  0  0  0  0
    3.0379   -1.5347    3.5164 C   0  0  0  0  0  0  0  0  0  0  0  0
    1.0429   -1.8570    2.0294 O   0  0  0  0  0  0  0  0  0  0  0  0
    0.6198    0.5049   -0.8358 H   0  0  0  0  0  0  0  0  0  0  0  0
    0.6198   -1.0966   -0.1371 H   0  0  0  0  0  0  0  0  0  0  0  0
    2.0465   -0.0941   -0.0242 H   0  0  0  0  0  0  0  0  0  0  0  0
    0.6198    2.5020    0.6382 H   0  0  0  0  0  0  0  0  0  0  0  0
    0.6198    2.3064    2.3745 H   0  0  0  0  0  0  0  0  0  0  0  0
    2.0464    1.9030    1.4498 H   0  0  0  0  0  0  0  0  0  0  0  0
   -1.2835    1.0388    0.5308 H   0  0  0  0  0  0  0  0  0  0  0  0
    1.9357   -0.0025    2.7392 H   0  0  0  0  0  0  0  0  0  0  0  0
   -0.0337    0.5395    4.1768 H   0  0  0  0  0  0  0  0  0  0  0  0
   -1.0811   -0.3225    3.1511 H   0  0  0  0  0  0  0  0  0  0  0  0
   -0.6618   -1.9619    4.9220 H   0  0  0  0  0  0  0  0  0  0  0  0
    0.9914   -1.5313    5.0180 H   0  0  0  0  0  0  0  0  0  0  0  0
   -0.3972   -4.2022    2.0800 H   0  0  0  0  0  0  0  0  0  0  0  0
   -1.0096   -4.0592    3.7102 H   0  0  0  0  0  0  0  0  0  0  0  0
   -1.4563   -2.8782    2.5024 H   0  0  0  0  0  0  0  0  0  0  0  0
    1.1593   -4.1273    4.5416 H   0  0  0  0  0  0  0  0  0  0  0  0
    2.1975   -4.0463    1.6688 H   0  0  0  0  0  0  0  0  0  0  0  0
    1.0358   -6.1565    3.1652 H   0  0  0  0  0  0  0  0  0  0  0  0
    4.0880   -5.4503    2.3432 H   0  0  0  0  0  0  0  0  0  0  0  0
    3.3429   -5.8512    3.8303 H   0  0  0  0  0  0  0  0  0  0  0  0
    5.4498   -2.2420    3.3523 H   0  0  0  0  0  0  0  0  0  0  0  0
    5.8481   -3.7707    2.6057 H   0  0  0  0  0  0  0  0  0  0  0  0
    4.5346   -2.8064    1.9750 H   0  0  0  0  0  0  0  0  0  0  0  0
    5.6706   -4.8639    4.7816 H   0  0  0  0  0  0  0  0  0  0  0  0
    5.6355   -3.2681    6.7229 H   0  0  0  0  0  0  0  0  0  0  0  0
    6.3197   -2.7135    5.1734 H   0  0  0  0  0  0  0  0  0  0  0  0
    5.1059   -0.9400    5.8386 H   0  0  0  0  0  0  0  0  0  0  0  0
    3.5664   -3.0684    3.5925 H   0  0  0  0  0  0  0  0  0  0  0  0
    2.9733   -6.3956    4.0492 H   0  0  0  0  0  0  0  0  0  0  0  0
    5.1805   -5.2595    4.3261 H   0  0  0  0  0  0  0  0  0  0  0  0
    4.5412   -4.3797    5.6937 H   0  0  0  0  0  0  0  0  0  0  0  0
    4.1834   -6.4140    6.7621 H   0  0  0  0  0  0  0  0  0  0  0  0
    1.2015   -5.6368    5.4158 H   0  0  0  0  0  0  0  0  0  0  0  0
    3.4975   -6.6274    6.8324 H   0  0  0  0  0  0  0  0  0  0  0  0
    1.7071   -4.3261    7.4187 H   0  0  0  0  0  0  0  0  0  0  0  0
    4.3520   -4.1910    6.3069 H   0  0  0  0  0  0  0  0  0  0  0  0
    1.0617   -3.0994    5.4035 H   0  0  0  0  0  0  0  0  0  0  0  0
    3.2483   -1.8510    6.7843 H   0  0  0  0  0  0  0  0  0  0  0  0
    3.1018   -0.8877    6.6666 H   0  0  0  0  0  0  0  0  0  0  0  0
    5.5951   -0.8666    9.3390 H   0  0  0  0  0  0  0  0  0  0  0  0
    6.0300   -1.1599    7.6723 H   0  0  0  0  0  0  0  0  0  0  0  0
    4.9123    0.1227    8.0708 H   0  0  0  0  0  0  0  0  0  0  0  0
    3.7804   -3.9204    8.5091 H   0  0  0  0  0  0  0  0  0  0  0  0
    5.3651   -3.5058    7.9008 H   0  0  0  0  0  0  0  0  0  0  0  0
    4.9634   -3.1987    9.5734 H   0  0  0  0  0  0  0  0  0  0  0  0
    3.2360   -1.4885   10.1362 H   0  0  0  0  0  0  0  0  0  0  0  0
    1.8112    0.9565    7.2053 H   0  0  0  0  0  0  0  0  0  0  0  0
    3.8397   -1.8789    7.8577 H   0  0  0  0  0  0  0  0  0  0  0  0
    4.4247   -2.1085    6.1907 H   0  0  0  0  0  0  0  0  0  0  0  0
    2.2261   -2.7167    5.5751 H   0  0  0  0  0  0  0  0  0  0  0  0
    3.2952   -4.1302    7.8376 H   0  0  0  0  0  0  0  0  0  0  0  0
    0.5538   -3.1000    7.3192 H   0  0  0  0  0  0  0  0  0  0  0  0
    2.5192   -1.9251    9.0532 H   0  0  0  0  0  0  0  0  0  0  0  0
    0.5624   -0.9104    6.2291 H   0  0  0  0  0  0  0  0  0  0  0  0
    0.1852   -0.7112    9.0689 H   0  0  0  0  0  0  0  0  0  0  0  0
    0.8772   -1.9492    9.4491 H   0  0  0  0  0  0  0  0  0  0  0  0
    1.9545   -3.3274    9.2863 H   0  0  0  0  0  0  0  0  0  0  0  0
    0.9581   -1.5336    7.0446 H   0  0  0  0  0  0  0  0  0  0  0  0
    0.5867   -3.1939    7.2761 H   0  0  0  0  0  0  0  0  0  0  0  0
    2.5272   -3.8402    5.3306 H   0  0  0  0  0  0  0  0  0  0  0  0
    2.3030   -4.6218    7.1299 H   0  0  0  0  0  0  0  0  0  0  0  0
    3.5614   -7.0604    5.9723 H   0  0  0  0  0  0  0  0  0  0  0  0
    5.0497   -6.5829    5.1912 H   0  0  0  0  0  0  0  0  0  0  0  0
    3.7969   -2.2196    5.9922 H   0  0  0  0  0  0  0  0  0  0  0  0
    2.0600   -2.0380    5.9348 H   0  0  0  0  0  0  0  0  0  0  0  0
    2.2027   -0.9240    3.7890 H   0  0  0  0  0  0  0  0  0  0  0  0
    3.9434   -1.0660    3.8406 H   0  0  0  0  0  0  0  0  0  0  0  0
    3.0595   -1.6555    2.4534 H   0  0  0  0  0  0  0  0  0  0  0  0
  1  2  1  0  0  0  0
  1 56  1  0  0  0  0
  1 57  1  0  0  0  0
  1 58  1  0  0  0  0
  2  3  1  0  0  0  0
  2  4  1  0  0  0  0
  2  5  1  0  0  0  0
  3 59  1  0  0  0  0
  3 60  1  0  0  0  0
  3 61  1  0  0  0  0
  4 62  1  0  0  0  0
  5  6  1  0  0  0  0
  5 55  1  0  0  0  0
  5 63  1  0  0  0  0
  6  7  1  0  0  0  0
  6 64  1  0  0  0  0
  6 65  1  0  0  0  0
  7  8  1  0  0  0  0
  7 66  1  0  0  0  0
  7 67  1  0  0  0  0
  8  9  1  0  0  0  0
  8 10  1  0  0  0  0
  8 55  1  0  0  0  0
  9 68  1  0  0  0  0
  9 69  1  0  0  0  0
  9 70  1  0  0  0  0
 10 11  1  0  0  0  0
 10 53  1  0  0  0  0
 10 71  1  0  0  0  0
 11 12  1  0  0  0  0
 11 13  1  0  0  0  0
 11 72  1  0  0  0  0
 12 73  1  0  0  0  0
 13 14  1  0  0  0  0
 13 74  1  0  0  0  0
 13 75  1  0  0  0  0
 14 15  1  0  0  0  0
 14 16  1  0  0  0  0
 14 53  1  0  0  0  0
 15 76  1  0  0  0  0
 15 77  1  0  0  0  0
 15 78  1  0  0  0  0
 16 17  1  0  0  0  0
 16 50  1  0  0  0  0
 16 79  1  0  0  0  0
 17 18  1  0  0  0  0
 17 80  1  0  0  0  0
 17 81  1  0  0  0  0
 18 19  1  0  0  0  0
 18 31  1  0  0  0  0
 18 82  1  0  0  0  0
 19 20  1  0  0  0  0
 20 21  1  0  0  0  0
 20 29  1  0  0  0  0
 20 83  1  0  0  0  0
 21 22  1  0  0  0  0
 22 23  1  0  0  0  0
 22 25  1  0  0  0  0
 22 84  1  0  0  0  0
 23 24  1  0  0  0  0
 23 85  1  0  0  0  0
 23 86  1  0  0  0  0
 24 87  1  0  0  0  0
 25 26  1  0  0  0  0
 25 27  1  0  0  0  0
 25 88  1  0  0  0  0
 26 89  1  0  0  0  0
 27 28  1  0  0  0  0
 27 29  1  0  0  0  0
 27 90  1  0  0  0  0
 28 91  1  0  0  0  0
 29 30  1  0  0  0  0
 29 92  1  0  0  0  0
 30 93  1  0  0  0  0
 31 32  1  0  0  0  0
 31 48  1  0  0  0  0
 31 94  1  0  0  0  0
 32 33  1  0  0  0  0
 32 34  1  0  0  0  0
 32 35  1  0  0  0  0
 33 95  1  0  0  0  0
 33 96  1  0  0  0  0
 33 97  1  0  0  0  0
 34 98  1  0  0  0  0
 34 99  1  0  0  0  0
 34100  1  0  0  0  0
 35 36  1  0  0  0  0
 35 46  1  0  0  0  0
 35101  1  0  0  0  0
 36 37  1  0  0  0  0
 37 38  1  0  0  0  0
 37 44  1  0  0  0  0
 37102  1  0  0  0  0
 38 39  1  0  0  0  0
 39 40  1  0  0  0  0
 39103  1  0  0  0  0
 39104  1  0  0  0  0
 40 41  1  0  0  0  0
 40 42  1  0  0  0  0
 40105  1  0  0  0  0
 41106  1  0  0  0  0
 42 43  1  0  0  0  0
 42 44  1  0  0  0  0
 42107  1  0  0  0  0
 43108  1  0  0  0  0
 44 45  1  0  0  0  0
 44109  1  0  0  0  0
 45110  1  0  0  0  0
 46 47  1  0  0  0  0
 46111  1  0  0  0  0
 46112  1  0  0  0  0
 47 48  1  0  0  0  0
 47113  1  0  0  0  0
 47114  1  0  0  0  0
 48 49  1  0  0  0  0
 48 50  1  0  0  0  0
 49 50  1  0  0  0  0
 49115  1  0  0  0  0
 49116  1  0  0  0  0
 50 51  1  0  0  0  0
 51 52  1  0  0  0  0
 51117  1  0  0  0  0
 51118  1  0  0  0  0
 52 53  1  0  0  0  0
 52119  1  0  0  0  0
 52120  1  0  0  0  0
 53 54  1  0  0  0  0
 54121  1  0  0  0  0
 54122  1  0  0  0  0
 54123  1  0  0  0  0
M  END
