REMARK  Name = 
REMARK  4 active torsions:
REMARK  status: ('A' for Active; 'I' for Inactive)
REMARK    1  A    between atoms: C_1  and  O_2
REMARK    2  A    between atoms: O_2  and  C_3
REMARK    3  A    between atoms: C_12  and  O_13
REMARK    4  A    between atoms: O_13  and  C_14
REMARK                            x       y       z     vdW  Elec       q    Type
REMARK                         _______ _______ _______ _____ _____    ______ ____
ROOT
ATOM      1  C   UNL     1       0.844  -2.385  -0.233  0.00  0.00    +0.000 A 
ATOM      2  C   UNL     1       2.184  -2.499  -0.622  0.00  0.00    +0.000 A 
ATOM      3  C   UNL     1       2.669  -3.638  -1.192  0.00  0.00    +0.000 A 
ATOM      4  C   UNL     1       1.816  -4.706  -1.452  0.00  0.00    +0.000 A 
ATOM      5  C   UNL     1       2.224  -5.912  -2.079  0.00  0.00    +0.000 A 
ATOM      6  C   UNL     1       1.363  -6.924  -2.339  0.00  0.00    +0.000 A 
ATOM      7  N   UNL     1       0.041  -6.778  -1.981  0.00  0.00    +0.000 N 
ATOM      8  C   UNL     1      -0.401  -5.681  -1.358  0.00  0.00    +0.000 A 
ATOM      9  C   UNL     1       0.452  -4.605  -1.067  0.00  0.00    +0.000 A 
ATOM     10  C   UNL     1      -0.021  -3.426  -0.442  0.00  0.00    +0.000 A 
ATOM     11  C   UNL     1      -0.953  -7.820  -2.325  0.00  0.00    +0.000 C 
ATOM     12  C   UNL     1      -0.412  -9.164  -2.276  0.00  0.00    +0.000 C 
ATOM     13  C   UNL     1       0.908  -9.282  -2.993  0.00  0.00    +0.000 A 
ATOM     14  C   UNL     1       1.284 -10.489  -3.561  0.00  0.00    +0.000 A 
ATOM     15  C   UNL     1       2.544 -10.563  -4.105  0.00  0.00    +0.000 A 
ATOM     16  C   UNL     1       3.412  -9.502  -4.093  0.00  0.00    +0.000 A 
ATOM     17  C   UNL     1       3.056  -8.298  -3.561  0.00  0.00    +0.000 A 
ATOM     18  C   UNL     1       1.764  -8.199  -2.993  0.00  0.00    +0.000 A 
ATOM     19  O   UNL     1       4.571  -9.835  -4.708  0.00  0.00    +0.000 OA
ATOM     20  C   UNL     1       4.488 -11.228  -4.971  0.00  0.00    +0.000 C 
ATOM     21  O   UNL     1       3.120 -11.634  -4.726  0.00  0.00    +0.000 OA
ENDROOT
BRANCH   1  23
ATOM     22  C   UNL     1       0.974   0.051   0.082  0.00  0.00    +0.000 C 
ATOM     23  O   UNL     1       0.501  -1.220   0.503  0.00  0.00    +0.000 OA
ENDBRANCH   1  23
BRANCH  10  24
ATOM     24  O   UNL     1      -1.377  -3.325  -0.035  0.00  0.00    +0.000 OA
ATOM     25  C   UNL     1      -1.843  -2.139   0.593  0.00  0.00    +0.000 C 
ENDBRANCH  10  24
TORSDOF 2
