
 OpenBabel03132514253D

 23 22  0  0  0  0  0  0  0  0999 V2000
    1.0895    0.0429    0.0121 C   0  0  0  0  0  0  0  0  0  0  0  0
    0.4862   -1.2145    1.1658 S   0  0  0  0  0  0  0  0  0  0  0  0
    1.0895   -2.8423    0.6536 C   0  0  0  0  0  0  0  0  0  0  0  0
    0.5828   -3.1533   -0.7453 C   0  0  0  0  0  0  0  0  0  0  0  0
    1.0895   -2.0974   -1.7141 C   0  0  0  0  0  0  0  0  0  0  0  0
    2.6095   -2.0974   -1.7141 C   0  0  0  0  0  0  0  0  0  0  0  0
    3.1162   -3.4644   -2.1442 C   0  0  0  0  0  0  0  0  0  0  0  0
    2.6262   -3.7652   -3.4971 N   0  0  0  0  0  0  0  0  0  0  0  0
    1.3327   -3.8173   -3.7318 C   0  0  0  0  0  0  0  0  0  0  0  0
   -0.2600   -3.8816   -4.0208 S   0  0  0  0  0  0  0  0  0  0  0  0
    0.7328    1.0052    0.3149 H   0  0  0  0  0  0  0  0  0  0  0  0
    0.7328   -0.1760   -0.9727 H   0  0  0  0  0  0  0  0  0  0  0  0
    2.1595    0.0429    0.0121 H   0  0  0  0  0  0  0  0  0  0  0  0
    2.1595   -2.8423    0.6536 H   0  0  0  0  0  0  0  0  0  0  0  0
    0.7328   -3.5857    1.3356 H   0  0  0  0  0  0  0  0  0  0  0  0
    0.9395   -4.1156   -1.0481 H   0  0  0  0  0  0  0  0  0  0  0  0
   -0.4872   -3.1533   -0.7453 H   0  0  0  0  0  0  0  0  0  0  0  0
    0.7328   -2.3163   -2.6989 H   0  0  0  0  0  0  0  0  0  0  0  0
    0.7328   -1.1351   -1.4114 H   0  0  0  0  0  0  0  0  0  0  0  0
    2.9662   -1.3540   -2.3961 H   0  0  0  0  0  0  0  0  0  0  0  0
    2.9662   -1.8784   -0.7294 H   0  0  0  0  0  0  0  0  0  0  0  0
    4.1862   -3.4644   -2.1442 H   0  0  0  0  0  0  0  0  0  0  0  0
    2.7595   -4.2077   -1.4623 H   0  0  0  0  0  0  0  0  0  0  0  0
  1  2  1  0  0  0  0
  1 11  1  0  0  0  0
  1 12  1  0  0  0  0
  1 13  1  0  0  0  0
  2  3  1  0  0  0  0
  3  4  1  0  0  0  0
  3 14  1  0  0  0  0
  3 15  1  0  0  0  0
  4  5  1  0  0  0  0
  4 16  1  0  0  0  0
  4 17  1  0  0  0  0
  5  6  1  0  0  0  0
  5 18  1  0  0  0  0
  5 19  1  0  0  0  0
  6  7  1  0  0  0  0
  6 20  1  0  0  0  0
  6 21  1  0  0  0  0
  7  8  1  0  0  0  0
  7 22  1  0  0  0  0
  7 23  1  0  0  0  0
  8  9  2  0  0  0  0
  9 10  2  0  0  0  0
M  END
