
 OpenBabel03132514253D

 16 15  0  0  0  0  0  0  0  0999 V2000
    1.0342   -0.0632   -0.0695 C   0  0  0  0  0  0  0  0  0  0  0  0
    0.5275    0.5281   -1.3750 C   0  0  0  0  0  0  0  0  0  0  0  0
    1.0341   -0.3068   -2.5397 C   0  0  0  0  0  0  0  0  0  0  0  0
    0.5441   -1.6861   -2.4037 N   0  0  0  0  0  0  0  0  0  0  0  0
   -0.9925    0.5281   -1.3750 C   0  0  0  0  0  0  0  0  0  0  0  0
   -1.6280    1.6234   -1.4830 O   0  0  0  0  0  0  0  0  0  0  0  0
   -1.7025   -0.6958   -1.2543 O   0  0  0  0  0  0  0  0  0  0  0  0
    0.6775   -1.0672    0.0295 H   0  0  0  0  0  0  0  0  0  0  0  0
    0.6775    0.5245    0.7504 H   0  0  0  0  0  0  0  0  0  0  0  0
    2.1042   -0.0632   -0.0695 H   0  0  0  0  0  0  0  0  0  0  0  0
    0.8842    1.5320   -1.4740 H   0  0  0  0  0  0  0  0  0  0  0  0
    0.6775    0.1094   -3.4587 H   0  0  0  0  0  0  0  0  0  0  0  0
    2.1041   -0.3068   -2.5397 H   0  0  0  0  0  0  0  0  0  0  0  0
    0.8841   -2.2463   -3.1853 H   0  0  0  0  0  0  0  0  0  0  0  0
    0.8841   -2.0828   -1.5277 H   0  0  0  0  0  0  0  0  0  0  0  0
   -2.7025   -0.6958   -1.2543 H   0  0  0  0  0  0  0  0  0  0  0  0
  1  2  1  0  0  0  0
  1  8  1  0  0  0  0
  1  9  1  0  0  0  0
  1 10  1  0  0  0  0
  2  3  1  0  0  0  0
  2  5  1  0  0  0  0
  2 11  1  0  0  0  0
  3  4  1  0  0  0  0
  3 12  1  0  0  0  0
  3 13  1  0  0  0  0
  4 14  1  0  0  0  0
  4 15  1  0  0  0  0
  5  6  2  0  0  0  0
  5  7  1  0  0  0  0
  7 16  1  0  0  0  0
M  END
