
 OpenBabel03132514253D

 18 17  0  0  0  0  0  0  0  0999 V2000
    0.9342   -0.0753   -0.0036 C   0  0  0  0  0  0  0  0  0  0  0  0
    0.4276   -0.3887   -1.4019 C   0  0  0  0  0  0  0  0  0  0  0  0
    0.9342   -1.7564   -1.8297 C   0  0  0  0  0  0  0  0  0  0  0  0
   -0.9924   -0.3887   -1.4019 O   0  0  0  0  0  0  0  0  0  0  0  0
    0.9342    0.6656   -2.3725 C   0  0  0  0  0  0  0  0  0  0  0  0
    0.4276    2.0334   -1.9448 C   0  0  0  0  0  0  0  0  0  0  0  0
    1.2535    2.9553   -1.6565 O   0  0  0  0  0  0  0  0  0  0  0  0
   -0.9685    2.2810   -1.8673 O   0  0  0  0  0  0  0  0  0  0  0  0
    0.5776   -0.8174    0.6797 H   0  0  0  0  0  0  0  0  0  0  0  0
    0.5776    0.8876    0.2976 H   0  0  0  0  0  0  0  0  0  0  0  0
    2.0042   -0.0753   -0.0036 H   0  0  0  0  0  0  0  0  0  0  0  0
    0.5776   -2.4986   -1.1464 H   0  0  0  0  0  0  0  0  0  0  0  0
    0.5776   -1.9771   -2.8141 H   0  0  0  0  0  0  0  0  0  0  0  0
    2.0042   -1.7564   -1.8297 H   0  0  0  0  0  0  0  0  0  0  0  0
   -1.3258   -1.0823   -0.7634 H   0  0  0  0  0  0  0  0  0  0  0  0
    2.0042    0.6656   -2.3725 H   0  0  0  0  0  0  0  0  0  0  0  0
    0.5776    0.4450   -3.3569 H   0  0  0  0  0  0  0  0  0  0  0  0
   -1.3018    3.1809   -1.5859 H   0  0  0  0  0  0  0  0  0  0  0  0
  1  2  1  0  0  0  0
  1  9  1  0  0  0  0
  1 10  1  0  0  0  0
  1 11  1  0  0  0  0
  2  3  1  0  0  0  0
  2  4  1  0  0  0  0
  2  5  1  0  0  0  0
  3 12  1  0  0  0  0
  3 13  1  0  0  0  0
  3 14  1  0  0  0  0
  4 15  1  0  0  0  0
  5  6  1  0  0  0  0
  5 16  1  0  0  0  0
  5 17  1  0  0  0  0
  6  7  2  0  0  0  0
  6  8  1  0  0  0  0
  8 18  1  0  0  0  0
M  END
