REMARK  Name = 
REMARK  4 active torsions:
REMARK  status: ('A' for Active; 'I' for Inactive)
REMARK    1  A    between atoms: C_1  and  C_2
REMARK    2  A    between atoms: C_11  and  C_12
REMARK    3  A    between atoms: C_13  and  C_14
REMARK    4  A    between atoms: C_13  and  C_15
REMARK                            x       y       z     vdW  Elec       q    Type
REMARK                         _______ _______ _______ _____ _____    ______ ____
ROOT
ATOM      1  C   UNL     1       0.958   0.065  -0.063  0.00  0.00    +0.000 C 
ATOM      2  C   UNL     1       0.451   0.081  -1.496  0.00  0.00    +0.000 C 
ATOM      3  C   UNL     1       0.531   1.676  -2.142  0.00  0.00    +0.000 C 
ATOM      4  C   UNL     1       1.599   1.482  -3.480  0.00  0.00    +0.000 C 
ATOM      5  C   UNL     1       2.052  -0.227  -3.496  0.00  0.00    +0.000 C 
ATOM      6  C   UNL     1       1.489  -0.913  -2.525  0.00  0.00    +0.000 C 
ATOM      7  C   UNL     1       1.732  -2.660  -2.253  0.00  0.00    +0.000 C 
ATOM      8  C   UNL     1       0.907  -3.401  -3.696  0.00  0.00    +0.000 C 
ATOM      9  C   UNL     1       1.785  -3.254  -4.897  0.00  0.00    +0.000 C 
ATOM     10  C   UNL     1       2.051  -2.004  -5.673  0.00  0.00    +0.000 C 
ATOM     11  C   UNL     1       3.155  -0.922  -4.714  0.00  0.00    +0.000 C 
ATOM     12  C   UNL     1       4.269  -1.720  -4.054  0.00  0.00    +0.000 C 
ATOM     13  C   UNL     1       0.650  -4.876  -3.432  0.00  0.00    +0.000 C 
ATOM     14  C   UNL     1      -0.240  -5.024  -2.209  0.00  0.00    +0.000 C 
ATOM     15  C   UNL     1      -0.038  -5.494  -4.638  0.00  0.00    +0.000 C 
ENDROOT
TORSDOF 0
