REMARK  Name = 
REMARK  5 active torsions:
REMARK  status: ('A' for Active; 'I' for Inactive)
REMARK    1  A    between atoms: C_1  and  C_2
REMARK    2  A    between atoms: C_2  and  C_3
REMARK    3  A    between atoms: C_2  and  C_5
REMARK    4  A    between atoms: C_3  and  N_4
REMARK    5  A    between atoms: C_5  and  O_7
REMARK                            x       y       z     vdW  Elec       q    Type
REMARK                         _______ _______ _______ _____ _____    ______ ____
ROOT
ATOM      1  C   UNL     1       1.034  -0.063  -0.070  0.00  0.00    +0.000 C 
ATOM      2  C   UNL     1       0.527   0.528  -1.375  0.00  0.00    +0.000 C 
ENDROOT
BRANCH   2   3
ATOM      3  C   UNL     1      -0.993   0.528  -1.375  0.00  0.00    +0.000 C 
ATOM      4  O   UNL     1      -1.628   1.623  -1.483  0.00  0.00    +0.000 OA
BRANCH   3   5
ATOM      5  O   UNL     1      -1.702  -0.696  -1.254  0.00  0.00    +0.000 OA
ATOM      6  H   UNL     1      -2.703  -0.696  -1.254  0.00  0.00    +0.000 HD
ENDBRANCH   3   5
ENDBRANCH   2   3
BRANCH   2   7
ATOM      7  C   UNL     1       1.034  -0.307  -2.540  0.00  0.00    +0.000 C 
BRANCH   7   8
ATOM      8  N   UNL     1       0.544  -1.686  -2.404  0.00  0.00    +0.000 NA
ATOM      9  H   UNL     1       0.884  -2.246  -3.185  0.00  0.00    +0.000 HD
ATOM     10  H   UNL     1       0.884  -2.083  -1.528  0.00  0.00    +0.000 HD
ENDBRANCH   7   8
ENDBRANCH   2   7
TORSDOF 4
