
 OpenBabel03132514253D

 55 59  0  0  0  0  0  0  0  0999 V2000
    0.9189   -0.0087   -0.0579 C   0  0  0  0  0  0  0  0  0  0  0  0
    0.4289   -0.4105    1.2685 N   0  0  0  0  0  0  0  0  0  0  0  0
   -1.0411   -0.4105    1.2685 C   0  0  0  0  0  0  0  0  0  0  0  0
    0.9189   -1.7601    1.5838 C   0  0  0  0  0  0  0  0  0  0  0  0
    0.4123   -2.7401    0.5382 C   0  0  0  0  0  0  0  0  0  0  0  0
    0.9189   -2.3247   -0.8333 C   0  0  0  0  0  0  0  0  0  0  0  0
    2.3889   -2.3247   -0.8333 N   0  0  0  0  0  0  0  0  0  0  0  0
    3.0853   -1.4998    0.0468 C   0  0  0  0  0  0  0  0  0  0  0  0
    2.3652   -0.6468    0.9567 C   0  0  0  0  0  0  0  0  0  0  0  0
    3.1252    0.2534    1.9171 C   0  0  0  0  0  0  0  0  0  0  0  0
    4.1634    0.9757    1.5250 C   0  0  0  0  0  0  0  0  0  0  0  0
    4.8139    0.9212    0.1523 C   0  0  0  0  0  0  0  0  0  0  0  0
    4.2188    1.1837   -1.0222 C   0  0  0  0  0  0  0  0  0  0  0  0
    5.1542    1.0625   -2.0897 N   0  0  0  0  0  0  0  0  0  0  0  0
    6.3748    0.6582   -1.5135 C   0  0  0  0  0  0  0  0  0  0  0  0
    7.5817    0.2918   -2.0932 C   0  0  0  0  0  0  0  0  0  0  0  0
    8.5825   -0.1575   -1.2381 C   0  0  0  0  0  0  0  0  0  0  0  0
    8.3951   -0.2195    0.1299 C   0  0  0  0  0  0  0  0  0  0  0  0
    7.2167    0.1451    0.6905 C   0  0  0  0  0  0  0  0  0  0  0  0
    6.1793    0.5772   -0.1305 C   0  0  0  0  0  0  0  0  0  0  0  0
    4.5892    1.8544    2.6586 C   0  0  0  0  0  0  0  0  0  0  0  0
    5.4896    2.6506    2.7052 O   0  0  0  0  0  0  0  0  0  0  0  0
    3.7147    1.5690    3.7176 N   0  0  0  0  0  0  0  0  0  0  0  0
    2.7872    0.6075    3.3272 C   0  0  0  0  0  0  0  0  0  0  0  0
    1.8827    0.1822    4.0092 O   0  0  0  0  0  0  0  0  0  0  0  0
    0.9250   -0.6468    0.9567 C   0  0  0  0  0  0  0  0  0  0  0  0
    0.2049    0.2062    1.8667 C   0  0  0  0  0  0  0  0  0  0  0  0
    0.9250    1.0592    2.7767 C   0  0  0  0  0  0  0  0  0  0  0  0
    0.2049    1.9121    3.6867 C   0  0  0  0  0  0  0  0  0  0  0  0
    0.9250    2.7651    4.5967 C   0  0  0  0  0  0  0  0  0  0  0  0
    3.0853   -3.1496   -1.7133 C   0  0  0  0  0  0  0  0  0  0  0  0
    0.5622    0.9737   -0.2873 H   0  0  0  0  0  0  0  0  0  0  0  0
    0.5622   -0.6986   -0.7939 H   0  0  0  0  0  0  0  0  0  0  0  0
    1.9889   -0.0087   -0.0579 H   0  0  0  0  0  0  0  0  0  0  0  0
   -1.3978   -1.1004    0.5325 H   0  0  0  0  0  0  0  0  0  0  0  0
   -1.3978   -0.7029    2.2340 H   0  0  0  0  0  0  0  0  0  0  0  0
   -1.3978    0.5719    1.0391 H   0  0  0  0  0  0  0  0  0  0  0  0
    1.9889   -1.7601    1.5838 H   0  0  0  0  0  0  0  0  0  0  0  0
    0.5622   -2.0525    2.5493 H   0  0  0  0  0  0  0  0  0  0  0  0
    0.7689   -3.7225    0.7677 H   0  0  0  0  0  0  0  0  0  0  0  0
   -0.6577   -2.7401    0.5382 H   0  0  0  0  0  0  0  0  0  0  0  0
    0.5623   -3.0146   -1.5693 H   0  0  0  0  0  0  0  0  0  0  0  0
    0.5623   -1.3423   -1.0628 H   0  0  0  0  0  0  0  0  0  0  0  0
    4.1553   -1.4998    0.0468 H   0  0  0  0  0  0  0  0  0  0  0  0
    3.1882    1.4466   -1.1397 H   0  0  0  0  0  0  0  0  0  0  0  0
    4.9752    1.2350   -3.0790 H   0  0  0  0  0  0  0  0  0  0  0  0
    7.7352    0.3522   -3.1504 H   0  0  0  0  0  0  0  0  0  0  0  0
    9.5216   -0.4629   -1.6499 H   0  0  0  0  0  0  0  0  0  0  0  0
    9.1930   -0.5607    0.7559 H   0  0  0  0  0  0  0  0  0  0  0  0
    7.0853    0.1014    1.7515 H   0  0  0  0  0  0  0  0  0  0  0  0
    3.7529    2.0032    4.6398 H   0  0  0  0  0  0  0  0  0  0  0  0
   -0.8651    0.2062    1.8667 H   0  0  0  0  0  0  0  0  0  0  0  0
    1.9950    1.0592    2.7767 H   0  0  0  0  0  0  0  0  0  0  0  0
   -0.8651    1.9121    3.6867 H   0  0  0  0  0  0  0  0  0  0  0  0
    1.9950    2.7651    4.5967 H   0  0  0  0  0  0  0  0  0  0  0  0
  1  2  1  0  0  0  0
  1 32  1  0  0  0  0
  1 33  1  0  0  0  0
  1 34  1  0  0  0  0
  2  3  1  0  0  0  0
  2  4  1  0  0  0  0
  3 35  1  0  0  0  0
  3 36  1  0  0  0  0
  3 37  1  0  0  0  0
  4  5  1  0  0  0  0
  4 38  1  0  0  0  0
  4 39  1  0  0  0  0
  5  6  1  0  0  0  0
  5 40  1  0  0  0  0
  5 41  1  0  0  0  0
  6  7  1  0  0  0  0
  6 42  1  0  0  0  0
  6 43  1  0  0  0  0
  7  8  1  0  0  0  0
  7 31  1  0  0  0  0
  8  9  2  0  0  0  0
  8 44  1  0  0  0  0
  9 10  1  0  0  0  0
  9 26  1  0  0  0  0
 10 11  2  0  0  0  0
 10 24  1  0  0  0  0
 11 12  1  0  0  0  0
 11 21  1  0  0  0  0
 12 13  2  0  0  0  0
 12 20  1  0  0  0  0
 13 14  1  0  0  0  0
 13 45  1  0  0  0  0
 14 15  1  0  0  0  0
 14 46  1  0  0  0  0
 15 16  1  0  0  0  0
 15 20  2  0  0  0  0
 16 17  2  0  0  0  0
 16 47  1  0  0  0  0
 17 18  1  0  0  0  0
 17 48  1  0  0  0  0
 18 19  2  0  0  0  0
 18 49  1  0  0  0  0
 19 20  1  0  0  0  0
 19 50  1  0  0  0  0
 21 22  2  0  0  0  0
 21 23  1  0  0  0  0
 23 24  1  0  0  0  0
 23 51  1  0  0  0  0
 24 25  2  0  0  0  0
 26 27  1  0  0  0  0
 26 31  2  0  0  0  0
 27 28  2  0  0  0  0
 27 52  1  0  0  0  0
 28 29  1  0  0  0  0
 28 53  1  0  0  0  0
 29 30  2  0  0  0  0
 29 54  1  0  0  0  0
 30 31  1  0  0  0  0
 30 55  1  0  0  0  0
M  END
