REMARK  Name = 
REMARK  8 active torsions:
REMARK  status: ('A' for Active; 'I' for Inactive)
REMARK    1  A    between atoms: C_1  and  N_2
REMARK    2  A    between atoms: N_2  and  C_3
REMARK    3  A    between atoms: N_2  and  C_4
REMARK    4  A    between atoms: C_4  and  C_5
REMARK    5  A    between atoms: C_5  and  C_6
REMARK    6  A    between atoms: C_6  and  N_7
REMARK    7  A    between atoms: C_9  and  C_10
REMARK    8  A    between atoms: C_11  and  C_12
REMARK                            x       y       z     vdW  Elec       q    Type
REMARK                         _______ _______ _______ _____ _____    ______ ____
ROOT
ATOM      1  C   UNL     1       3.125   0.253   1.917  0.00  0.00    +0.000 C 
ATOM      2  C   UNL     1       4.163   0.976   1.525  0.00  0.00    +0.000 C 
ATOM      3  C   UNL     1       4.589   1.854   2.659  0.00  0.00    +0.000 C 
ATOM      4  O   UNL     1       5.490   2.651   2.705  0.00  0.00    +0.000 OA
ATOM      5  N   UNL     1       3.715   1.569   3.718  0.00  0.00    +0.000 N 
ATOM      6  C   UNL     1       2.787   0.608   3.327  0.00  0.00    +0.000 C 
ATOM      7  O   UNL     1       1.883   0.182   4.009  0.00  0.00    +0.000 OA
ATOM      8  H   UNL     1       3.753   2.003   4.640  0.00  0.00    +0.000 HD
ENDROOT
BRANCH   2   9
ATOM      9  C   UNL     1       4.814   0.921   0.152  0.00  0.00    +0.000 A 
ATOM     10  C   UNL     1       4.219   1.184  -1.022  0.00  0.00    +0.000 A 
ATOM     11  N   UNL     1       5.154   1.062  -2.090  0.00  0.00    +0.000 N 
ATOM     12  C   UNL     1       6.375   0.658  -1.514  0.00  0.00    +0.000 A 
ATOM     13  C   UNL     1       7.582   0.292  -2.093  0.00  0.00    +0.000 A 
ATOM     14  C   UNL     1       8.582  -0.158  -1.238  0.00  0.00    +0.000 A 
ATOM     15  C   UNL     1       8.395  -0.220   0.130  0.00  0.00    +0.000 A 
ATOM     16  C   UNL     1       7.217   0.145   0.691  0.00  0.00    +0.000 A 
ATOM     17  C   UNL     1       6.179   0.577  -0.131  0.00  0.00    +0.000 A 
ATOM     18  H   UNL     1       4.975   1.235  -3.079  0.00  0.00    +0.000 HD
ENDBRANCH   2   9
BRANCH   1  21
ATOM     19  N   UNL     1       2.389  -2.325  -0.833  0.00  0.00    +0.000 N 
ATOM     20  C   UNL     1       3.085  -1.500   0.047  0.00  0.00    +0.000 A 
ATOM     21  C   UNL     1       2.365  -0.647   0.957  0.00  0.00    +0.000 A 
ATOM     22  C   UNL     1       0.925  -0.647   0.957  0.00  0.00    +0.000 A 
ATOM     23  C   UNL     1       0.205   0.206   1.867  0.00  0.00    +0.000 A 
ATOM     24  C   UNL     1       0.925   1.059   2.777  0.00  0.00    +0.000 A 
ATOM     25  C   UNL     1       0.205   1.912   3.687  0.00  0.00    +0.000 A 
ATOM     26  C   UNL     1       0.925   2.765   4.597  0.00  0.00    +0.000 A 
ATOM     27  C   UNL     1       3.085  -3.150  -1.713  0.00  0.00    +0.000 A 
BRANCH  19  28
ATOM     28  C   UNL     1       0.919  -2.325  -0.833  0.00  0.00    +0.000 C 
BRANCH  28  29
ATOM     29  C   UNL     1       0.412  -2.740   0.538  0.00  0.00    +0.000 C 
BRANCH  29  30
ATOM     30  C   UNL     1       0.919  -1.760   1.584  0.00  0.00    +0.000 C 
BRANCH  30  32
ATOM     31  C   UNL     1       0.919  -0.009  -0.058  0.00  0.00    +0.000 C 
ATOM     32  N   UNL     1       0.429  -0.410   1.268  0.00  0.00    +0.000 NA
ATOM     33  C   UNL     1      -1.041  -0.410   1.268  0.00  0.00    +0.000 C 
ENDBRANCH  30  32
ENDBRANCH  29  30
ENDBRANCH  28  29
ENDBRANCH  19  28
ENDBRANCH   1  21
TORSDOF 6
