REMARK  Name = 
REMARK  6 active torsions:
REMARK  status: ('A' for Active; 'I' for Inactive)
REMARK    1  A    between atoms: C_1  and  C_2
REMARK    2  A    between atoms: C_2  and  C_3
REMARK    3  A    between atoms: C_2  and  C_4
REMARK    4  A    between atoms: C_2  and  C_11
REMARK    5  A    between atoms: C_7  and  O_8
REMARK    6  A    between atoms: C_14  and  O_15
REMARK                            x       y       z     vdW  Elec       q    Type
REMARK                         _______ _______ _______ _____ _____    ______ ____
ROOT
ATOM      1  C   UNL     1       0.936   0.045  -0.062  0.00  0.00    +0.000 C 
ATOM      2  C   UNL     1       0.429  -1.388  -0.031  0.00  0.00    +0.000 C 
ATOM      3  C   UNL     1       0.936  -2.077   1.225  0.00  0.00    +0.000 C 
ENDROOT
BRANCH   2   4
ATOM      4  C   UNL     1      -1.091  -1.388  -0.031  0.00  0.00    +0.000 A 
ATOM      5  C   UNL     1      -1.778  -0.194  -0.031  0.00  0.00    +0.000 A 
ATOM      6  C   UNL     1      -3.176  -0.166  -0.043  0.00  0.00    +0.000 A 
ATOM      7  C   UNL     1      -3.853  -1.403  -0.072  0.00  0.00    +0.000 A 
ATOM      8  C   UNL     1      -3.157  -2.588  -0.042  0.00  0.00    +0.000 A 
ATOM      9  C   UNL     1      -1.776  -2.579  -0.031  0.00  0.00    +0.000 A 
BRANCH   7  10
ATOM     10  O   UNL     1      -5.203  -1.473  -0.109  0.00  0.00    +0.000 OA
ATOM     11  H   UNL     1      -5.747  -0.634  -0.132  0.00  0.00    +0.000 HD
ENDBRANCH   7  10
ENDBRANCH   2   4
BRANCH   2  12
ATOM     12  C   UNL     1       0.936  -2.131  -1.256  0.00  0.00    +0.000 A 
ATOM     13  C   UNL     1       0.738  -3.494  -1.304  0.00  0.00    +0.000 A 
ATOM     14  C   UNL     1       1.021  -4.223  -2.463  0.00  0.00    +0.000 A 
ATOM     15  C   UNL     1       1.496  -3.511  -3.583  0.00  0.00    +0.000 A 
ATOM     16  C   UNL     1       1.718  -2.156  -3.514  0.00  0.00    +0.000 A 
ATOM     17  C   UNL     1       1.428  -1.466  -2.353  0.00  0.00    +0.000 A 
BRANCH  15  18
ATOM     18  O   UNL     1       1.773  -4.130  -4.753  0.00  0.00    +0.000 OA
ATOM     19  H   UNL     1       1.627  -5.115  -4.845  0.00  0.00    +0.000 HD
ENDBRANCH  15  18
ENDBRANCH   2  12
TORSDOF 4
