
 OpenBabel03132514253D

 33 34  0  0  0  0  0  0  0  0999 V2000
    0.9358    0.0450   -0.0621 C   0  0  0  0  0  0  0  0  0  0  0  0
    0.4292   -1.3878   -0.0312 C   0  0  0  0  0  0  0  0  0  0  0  0
    0.9358   -2.0773    1.2251 C   0  0  0  0  0  0  0  0  0  0  0  0
   -1.0908   -1.3878   -0.0312 C   0  0  0  0  0  0  0  0  0  0  0  0
   -1.7778   -0.1937   -0.0311 C   0  0  0  0  0  0  0  0  0  0  0  0
   -3.1762   -0.1662   -0.0427 C   0  0  0  0  0  0  0  0  0  0  0  0
   -3.8533   -1.4029   -0.0725 C   0  0  0  0  0  0  0  0  0  0  0  0
   -5.2034   -1.4730   -0.1092 O   0  0  0  0  0  0  0  0  0  0  0  0
   -3.1573   -2.5877   -0.0424 C   0  0  0  0  0  0  0  0  0  0  0  0
   -1.7759   -2.5787   -0.0312 C   0  0  0  0  0  0  0  0  0  0  0  0
    0.9358   -2.1310   -1.2564 C   0  0  0  0  0  0  0  0  0  0  0  0
    0.7383   -3.4935   -1.3036 C   0  0  0  0  0  0  0  0  0  0  0  0
    1.0208   -4.2234   -2.4630 C   0  0  0  0  0  0  0  0  0  0  0  0
    1.4965   -3.5111   -3.5833 C   0  0  0  0  0  0  0  0  0  0  0  0
    1.7733   -4.1298   -4.7535 O   0  0  0  0  0  0  0  0  0  0  0  0
    1.7175   -2.1562   -3.5144 C   0  0  0  0  0  0  0  0  0  0  0  0
    1.4278   -1.4660   -2.3534 C   0  0  0  0  0  0  0  0  0  0  0  0
    0.5792    0.5681    0.8004 H   0  0  0  0  0  0  0  0  0  0  0  0
    0.5792    0.5304   -0.9465 H   0  0  0  0  0  0  0  0  0  0  0  0
    2.0058    0.0450   -0.0621 H   0  0  0  0  0  0  0  0  0  0  0  0
    0.5791   -1.5542    2.0877 H   0  0  0  0  0  0  0  0  0  0  0  0
    0.5791   -3.0859    1.2469 H   0  0  0  0  0  0  0  0  0  0  0  0
    2.0058   -2.0773    1.2251 H   0  0  0  0  0  0  0  0  0  0  0  0
   -1.2330    0.7272   -0.0222 H   0  0  0  0  0  0  0  0  0  0  0  0
   -3.7127    0.7595   -0.0293 H   0  0  0  0  0  0  0  0  0  0  0  0
   -5.7472   -0.6341   -0.1319 H   0  0  0  0  0  0  0  0  0  0  0  0
   -3.6859   -3.5179   -0.0275 H   0  0  0  0  0  0  0  0  0  0  0  0
   -1.2372   -3.5031   -0.0225 H   0  0  0  0  0  0  0  0  0  0  0  0
    0.3629   -4.0015   -0.4399 H   0  0  0  0  0  0  0  0  0  0  0  0
    0.8810   -5.2836   -2.4985 H   0  0  0  0  0  0  0  0  0  0  0  0
    1.6265   -5.1147   -4.8453 H   0  0  0  0  0  0  0  0  0  0  0  0
    2.1143   -1.6357   -4.3609 H   0  0  0  0  0  0  0  0  0  0  0  0
    1.5874   -0.4089   -2.3082 H   0  0  0  0  0  0  0  0  0  0  0  0
  1  2  1  0  0  0  0
  1 18  1  0  0  0  0
  1 19  1  0  0  0  0
  1 20  1  0  0  0  0
  2  3  1  0  0  0  0
  2  4  1  0  0  0  0
  2 11  1  0  0  0  0
  3 21  1  0  0  0  0
  3 22  1  0  0  0  0
  3 23  1  0  0  0  0
  4  5  1  0  0  0  0
  4 10  2  0  0  0  0
  5  6  2  0  0  0  0
  5 24  1  0  0  0  0
  6  7  1  0  0  0  0
  6 25  1  0  0  0  0
  7  8  1  0  0  0  0
  7  9  2  0  0  0  0
  8 26  1  0  0  0  0
  9 10  1  0  0  0  0
  9 27  1  0  0  0  0
 10 28  1  0  0  0  0
 11 12  1  0  0  0  0
 11 17  2  0  0  0  0
 12 13  2  0  0  0  0
 12 29  1  0  0  0  0
 13 14  1  0  0  0  0
 13 30  1  0  0  0  0
 14 15  1  0  0  0  0
 14 16  2  0  0  0  0
 15 31  1  0  0  0  0
 16 17  1  0  0  0  0
 16 32  1  0  0  0  0
 17 33  1  0  0  0  0
M  END
