REMARK  Name = 
REMARK  14 active torsions:
REMARK  status: ('A' for Active; 'I' for Inactive)
REMARK    1  A    between atoms: C_1  and  C_2
REMARK    2  A    between atoms: C_2  and  C_3
REMARK    3  A    between atoms: C_2  and  C_4
REMARK    4  A    between atoms: C_4  and  C_6
REMARK    5  A    between atoms: C_6  and  C_7
REMARK    6  A    between atoms: C_7  and  C_8
REMARK    7  A    between atoms: C_8  and  C_9
REMARK    8  A    between atoms: C_8  and  C_10
REMARK    9  A    between atoms: C_13  and  C_14
REMARK   10  A    between atoms: C_22  and  O_23
REMARK   11  A    between atoms: C_24  and  C_25
REMARK   12  A    between atoms: C_24  and  C_26
REMARK   13  A    between atoms: C_27  and  C_28
REMARK   14  A    between atoms: C_32  and  C_33
REMARK                            x       y       z     vdW  Elec       q    Type
REMARK                         _______ _______ _______ _____ _____    ______ ____
ROOT
ATOM      1  C   UNL     1       0.409  -2.981   3.330  0.00  0.00    +0.000 C 
ATOM      2  C   UNL     1       1.904  -2.905   3.597  0.00  0.00    +0.000 C 
ATOM      3  C   UNL     1       2.271  -1.494   4.026  0.00  0.00    +0.000 C 
ATOM      4  C   UNL     1       1.511  -1.135   5.293  0.00  0.00    +0.000 C 
ATOM      5  C   UNL     1       2.515  -0.834   6.393  0.00  0.00    +0.000 C 
ATOM      6  C   UNL     1       0.640   0.099   5.052  0.00  0.00    +0.000 C 
ATOM      7  C   UNL     1       1.068   0.777   3.748  0.00  0.00    +0.000 C 
ATOM      8  C   UNL     1       0.330   0.153   2.592  0.00  0.00    +0.000 C 
ATOM      9  C   UNL     1       0.996  -0.428   1.625  0.00  0.00    +0.000 C 
ATOM     10  C   UNL     1       0.424  -4.703   2.785  0.00  0.00    +0.000 C 
ATOM     11  C   UNL     1       1.072  -4.192   1.727  0.00  0.00    +0.000 C 
ATOM     12  C   UNL     1       0.257  -3.656   0.650  0.00  0.00    +0.000 C 
ATOM     13  C   UNL     1       0.880  -2.384   0.136  0.00  0.00    +0.000 C 
ATOM     14  C   UNL     1       0.258  -1.051   0.469  0.00  0.00    +0.000 C 
ATOM     15  C   UNL     1      -1.200  -1.253   0.849  0.00  0.00    +0.000 C 
ATOM     16  C   UNL     1       0.344  -0.135  -0.740  0.00  0.00    +0.000 C 
ATOM     17  C   UNL     1       1.202  -5.276   3.941  0.00  0.00    +0.000 C 
ATOM     18  C   UNL     1       1.968  -6.569   3.716  0.00  0.00    +0.000 C 
ATOM     19  C   UNL     1       0.617  -4.758   5.256  0.00  0.00    +0.000 C 
ATOM     20  O   UNL     1      -0.411  -5.228   5.838  0.00  0.00    +0.000 OA
ATOM     21  C   UNL     1       1.460  -3.589   5.762  0.00  0.00    +0.000 C 
ATOM     22  C   UNL     1       0.626  -2.307   5.725  0.00  0.00    +0.000 C 
ATOM     23  C   UNL     1       0.060  -2.031   7.108  0.00  0.00    +0.000 C 
ENDROOT
BRANCH   1  24
ATOM     24  C   UNL     1       0.042  -2.004   2.225  0.00  0.00    +0.000 C 
ATOM     25  C   UNL     1       0.409  -0.592   2.654  0.00  0.00    +0.000 C 
BRANCH  24  26
ATOM     26  C   UNL     1      -1.452  -2.079   1.958  0.00  0.00    +0.000 C 
BRANCH  26  27
ATOM     27  C   UNL     1      -1.820  -1.102   0.853  0.00  0.00    +0.000 C 
BRANCH  27  28
ATOM     28  C   UNL     1      -1.060  -1.460  -0.413  0.00  0.00    +0.000 C 
ATOM     29  O   UNL     1      -1.695  -1.760  -1.472  0.00  0.00    +0.000 OA
BRANCH  28  31
ATOM     30  C   UNL     1       0.967  -0.071  -0.062  0.00  0.00    +0.000 C 
ATOM     31  C   UNL     1       0.460  -1.460  -0.413  0.00  0.00    +0.000 C 
ATOM     32  C   UNL     1       0.967  -2.460   0.614  0.00  0.00    +0.000 C 
ENDBRANCH  28  31
ENDBRANCH  27  28
ENDBRANCH  26  27
ENDBRANCH  24  26
ENDBRANCH   1  24
BRANCH  13  33
ATOM     33  O   UNL     1       0.707  -2.482  -1.270  0.00  0.00    +0.000 OA
ATOM     34  H   UNL     1      -0.269  -2.496  -1.486  0.00  0.00    +0.000 HD
ENDBRANCH  13  33
TORSDOF 6
