
 OpenBabel03132514253D

 74 76  0  0  0  0  0  0  0  0999 V2000
    0.9672   -0.0595    0.0734 C   0  0  0  0  0  0  0  0  0  0  0  0
    0.2870    0.8725   -0.6472 C   0  0  0  0  0  0  0  0  0  0  0  0
    0.9247    1.9847   -1.4832 C   0  0  0  0  0  0  0  0  0  0  0  0
    1.7917    2.9218   -1.0134 C   0  0  0  0  0  0  0  0  0  0  0  0
    2.3545    3.9756   -1.9532 C   0  0  0  0  0  0  0  0  0  0  0  0
    3.2215    4.9128   -1.4834 C   0  0  0  0  0  0  0  0  0  0  0  0
    3.6665    4.9081   -0.0191 C   0  0  0  0  0  0  0  0  0  0  0  0
    5.0892    4.7881    0.0455 C   0  0  0  0  0  0  0  0  0  0  0  0
    5.7938    5.8604   -0.5830 C   0  0  0  0  0  0  0  0  0  0  0  0
    5.4349    5.9036   -2.0702 C   0  0  0  0  0  0  0  0  0  0  0  0
    6.1365    7.0801   -2.7289 C   0  0  0  0  0  0  0  0  0  0  0  0
    3.9184    6.0636   -2.2166 C   0  0  0  0  0  0  0  0  0  0  0  0
    6.2188    5.8413   -4.8725 C   0  0  0  0  0  0  0  0  0  0  0  0
    5.5199    4.6612   -4.2173 C   0  0  0  0  0  0  0  0  0  0  0  0
    5.8802    4.6146   -2.7414 C   0  0  0  0  0  0  0  0  0  0  0  0
    7.3848    4.4591   -2.5918 C   0  0  0  0  0  0  0  0  0  0  0  0
    7.7452    4.4124   -1.1159 C   0  0  0  0  0  0  0  0  0  0  0  0
    7.8302    3.1701   -3.2630 C   0  0  0  0  0  0  0  0  0  0  0  0
    7.4698    3.2167   -4.7390 C   0  0  0  0  0  0  0  0  0  0  0  0
    8.1688    4.3968   -5.3941 C   0  0  0  0  0  0  0  0  0  0  0  0
    9.6734    4.2412   -5.2446 C   0  0  0  0  0  0  0  0  0  0  0  0
   10.1187    2.9522   -5.9158 C   0  0  0  0  0  0  0  0  0  0  0  0
   10.3723    5.4213   -5.8998 C   0  0  0  0  0  0  0  0  0  0  0  0
   10.0100    4.1977   -3.8658 O   0  0  0  0  0  0  0  0  0  0  0  0
    0.4681    1.8861   -2.8339 C   0  0  0  0  0  0  0  0  0  0  0  0
   -0.9451    2.0336   -2.9838 C   0  0  0  0  0  0  0  0  0  0  0  0
   -1.2872    1.9460   -4.3592 O   0  0  0  0  0  0  0  0  0  0  0  0
   -1.6584    0.9234   -2.2085 C   0  0  0  0  0  0  0  0  0  0  0  0
   -1.2382    0.9884   -0.7369 C   0  0  0  0  0  0  0  0  0  0  0  0
   -1.8429   -0.0765   -0.0182 O   0  0  0  0  0  0  0  0  0  0  0  0
    0.4322   -0.7926    0.6401 H   0  0  0  0  0  0  0  0  0  0  0  0
    2.0372   -0.0595    0.0734 H   0  0  0  0  0  0  0  0  0  0  0  0
    2.0776    2.9171    0.0177 H   0  0  0  0  0  0  0  0  0  0  0  0
    2.0686    3.9803   -2.9843 H   0  0  0  0  0  0  0  0  0  0  0  0
    3.3638    5.8215    0.4488 H   0  0  0  0  0  0  0  0  0  0  0  0
    3.2153    4.0811    0.4883 H   0  0  0  0  0  0  0  0  0  0  0  0
    5.3481    3.8957   -0.4850 H   0  0  0  0  0  0  0  0  0  0  0  0
    5.3772    4.7546    1.0754 H   0  0  0  0  0  0  0  0  0  0  0  0
    6.8473    5.7073   -0.4744 H   0  0  0  0  0  0  0  0  0  0  0  0
    5.5189    6.7863   -0.1226 H   0  0  0  0  0  0  0  0  0  0  0  0
    5.8234    7.9898   -2.2605 H   0  0  0  0  0  0  0  0  0  0  0  0
    7.1954    6.9696   -2.6213 H   0  0  0  0  0  0  0  0  0  0  0  0
    5.8847    7.1091   -3.7684 H   0  0  0  0  0  0  0  0  0  0  0  0
    3.6136    6.9968   -1.7909 H   0  0  0  0  0  0  0  0  0  0  0  0
    5.9652    5.8741   -5.9115 H   0  0  0  0  0  0  0  0  0  0  0  0
    5.9053    6.7487   -4.4000 H   0  0  0  0  0  0  0  0  0  0  0  0
    5.8334    3.7538   -4.6898 H   0  0  0  0  0  0  0  0  0  0  0  0
    4.4607    4.7707   -4.3226 H   0  0  0  0  0  0  0  0  0  0  0  0
    5.3882    3.7838   -2.2802 H   0  0  0  0  0  0  0  0  0  0  0  0
    7.8768    5.2898   -3.0530 H   0  0  0  0  0  0  0  0  0  0  0  0
    7.2531    3.5817   -0.6547 H   0  0  0  0  0  0  0  0  0  0  0  0
    8.8043    4.3030   -1.0106 H   0  0  0  0  0  0  0  0  0  0  0  0
    7.4317    5.3198   -0.6434 H   0  0  0  0  0  0  0  0  0  0  0  0
    8.8893    3.0606   -3.1578 H   0  0  0  0  0  0  0  0  0  0  0  0
    7.3381    2.3393   -2.8018 H   0  0  0  0  0  0  0  0  0  0  0  0
    7.7833    2.3093   -5.2115 H   0  0  0  0  0  0  0  0  0  0  0  0
    6.4107    3.3261   -4.8443 H   0  0  0  0  0  0  0  0  0  0  0  0
    7.9151    4.4296   -6.4331 H   0  0  0  0  0  0  0  0  0  0  0  0
    7.8553    5.3041   -4.9216 H   0  0  0  0  0  0  0  0  0  0  0  0
    9.8651    2.9850   -6.9548 H   0  0  0  0  0  0  0  0  0  0  0  0
   11.1779    2.8428   -5.8105 H   0  0  0  0  0  0  0  0  0  0  0  0
    9.6267    2.1215   -5.4546 H   0  0  0  0  0  0  0  0  0  0  0  0
   10.0588    6.3287   -5.4273 H   0  0  0  0  0  0  0  0  0  0  0  0
   11.4315    5.3119   -5.7945 H   0  0  0  0  0  0  0  0  0  0  0  0
   10.1187    5.4541   -6.9387 H   0  0  0  0  0  0  0  0  0  0  0  0
   10.9999    4.0954   -3.7674 H   0  0  0  0  0  0  0  0  0  0  0  0
    0.7131    0.9007   -3.1714 H   0  0  0  0  0  0  0  0  0  0  0  0
    0.9486    2.6507   -3.4078 H   0  0  0  0  0  0  0  0  0  0  0  0
   -1.2468    2.9864   -2.6015 H   0  0  0  0  0  0  0  0  0  0  0  0
   -1.0052    1.0557   -4.7167 H   0  0  0  0  0  0  0  0  0  0  0  0
   -1.3925   -0.0290   -2.6171 H   0  0  0  0  0  0  0  0  0  0  0  0
   -2.7173    1.0569   -2.2848 H   0  0  0  0  0  0  0  0  0  0  0  0
   -1.5524    1.9202   -0.3150 H   0  0  0  0  0  0  0  0  0  0  0  0
   -1.5520   -0.9499   -0.4090 H   0  0  0  0  0  0  0  0  0  0  0  0
  1  2  2  0  0  0  0
  1 31  1  0  0  0  0
  1 32  1  0  0  0  0
  2  3  1  0  0  0  0
  2 29  1  0  0  0  0
  3  4  2  0  0  0  0
  3 25  1  0  0  0  0
  4  5  1  0  0  0  0
  4 33  1  0  0  0  0
  5  6  2  0  0  0  0
  5 34  1  0  0  0  0
  6  7  1  0  0  0  0
  6 12  1  0  0  0  0
  7  8  1  0  0  0  0
  7 35  1  0  0  0  0
  7 36  1  0  0  0  0
  8  9  1  0  0  0  0
  8 37  1  0  0  0  0
  8 38  1  0  0  0  0
  9 10  1  0  0  0  0
  9 39  1  0  0  0  0
  9 40  1  0  0  0  0
 10 11  1  0  0  0  0
 10 12  1  0  0  0  0
 10 15  1  0  0  0  0
 11 41  1  0  0  0  0
 11 42  1  0  0  0  0
 11 43  1  0  0  0  0
 12 13  1  0  0  0  0
 12 44  1  0  0  0  0
 13 14  1  0  0  0  0
 13 45  1  0  0  0  0
 13 46  1  0  0  0  0
 14 15  1  0  0  0  0
 14 47  1  0  0  0  0
 14 48  1  0  0  0  0
 15 16  1  0  0  0  0
 15 49  1  0  0  0  0
 16 17  1  0  0  0  0
 16 18  1  0  0  0  0
 16 50  1  0  0  0  0
 17 51  1  0  0  0  0
 17 52  1  0  0  0  0
 17 53  1  0  0  0  0
 18 19  1  0  0  0  0
 18 54  1  0  0  0  0
 18 55  1  0  0  0  0
 19 20  1  0  0  0  0
 19 56  1  0  0  0  0
 19 57  1  0  0  0  0
 20 21  1  0  0  0  0
 20 58  1  0  0  0  0
 20 59  1  0  0  0  0
 21 22  1  0  0  0  0
 21 23  1  0  0  0  0
 21 24  1  0  0  0  0
 22 60  1  0  0  0  0
 22 61  1  0  0  0  0
 22 62  1  0  0  0  0
 23 63  1  0  0  0  0
 23 64  1  0  0  0  0
 23 65  1  0  0  0  0
 24 66  1  0  0  0  0
 25 26  1  0  0  0  0
 25 67  1  0  0  0  0
 25 68  1  0  0  0  0
 26 27  1  0  0  0  0
 26 28  1  0  0  0  0
 26 69  1  0  0  0  0
 27 70  1  0  0  0  0
 28 29  1  0  0  0  0
 28 71  1  0  0  0  0
 28 72  1  0  0  0  0
 29 30  1  0  0  0  0
 29 73  1  0  0  0  0
 30 74  1  0  0  0  0
M  END
