
 OpenBabel03132514253D

 75 74  0  0  0  0  0  0  0  0999 V2000
    1.0525   -0.0256   -0.0812 C   0  0  0  0  0  0  0  0  0  0  0  0
    0.5459   -1.4322    0.1927 C   0  0  0  0  0  0  0  0  0  0  0  0
    1.0525   -1.8984    1.5478 C   0  0  0  0  0  0  0  0  0  0  0  0
    0.5458   -0.9579    2.6291 C   0  0  0  0  0  0  0  0  0  0  0  0
   -0.9742   -0.9579    2.6291 C   0  0  0  0  0  0  0  0  0  0  0  0
   -1.4808   -2.3646    2.9029 C   0  0  0  0  0  0  0  0  0  0  0  0
   -0.9742   -2.8308    4.2580 C   0  0  0  0  0  0  0  0  0  0  0  0
   -1.4808   -1.8903    5.3393 C   0  0  0  0  0  0  0  0  0  0  0  0
   -3.0008   -1.8903    5.3393 C   0  0  0  0  0  0  0  0  0  0  0  0
   -3.5075   -3.2970    5.6132 C   0  0  0  0  0  0  0  0  0  0  0  0
   -3.0008   -3.7632    6.9683 C   0  0  0  0  0  0  0  0  0  0  0  0
   -3.5075   -2.8227    8.0496 C   0  0  0  0  0  0  0  0  0  0  0  0
   -5.0275   -2.8227    8.0496 C   0  0  0  0  0  0  0  0  0  0  0  0
   -5.5342   -4.2294    8.3234 C   0  0  0  0  0  0  0  0  0  0  0  0
   -6.3163   -4.4711    9.4099 C   0  0  0  0  0  0  0  0  0  0  0  0
   -6.8230   -5.8778    9.6838 C   0  0  0  0  0  0  0  0  0  0  0  0
   -6.3496   -6.3133   10.9497 O   0  0  0  0  0  0  0  0  0  0  0  0
   -8.3430   -5.8778    9.6838 C   0  0  0  0  0  0  0  0  0  0  0  0
   -8.8496   -5.4116    8.3286 C   0  0  0  0  0  0  0  0  0  0  0  0
   -8.3763   -6.2902    7.3185 O   0  0  0  0  0  0  0  0  0  0  0  0
   -8.8330   -7.2382    9.9486 N   0  0  0  0  0  0  0  0  0  0  0  0
   -9.6781   -7.4995   11.1227 C   0  0  0  0  0  0  0  0  0  0  0  0
  -10.1017   -8.6756   11.3516 O   0  0  0  0  0  0  0  0  0  0  0  0
  -10.0453   -6.3629   12.0628 C   0  0  0  0  0  0  0  0  0  0  0  0
   -8.7786   -5.7608   12.6488 C   0  0  0  0  0  0  0  0  0  0  0  0
   -7.9048   -5.2269   11.5256 C   0  0  0  0  0  0  0  0  0  0  0  0
   -8.6648   -4.1586   10.7565 C   0  0  0  0  0  0  0  0  0  0  0  0
   -9.0320   -3.0221   11.6966 C   0  0  0  0  0  0  0  0  0  0  0  0
    0.6959    0.6365    0.6800 H   0  0  0  0  0  0  0  0  0  0  0  0
    0.6959    0.3026   -1.0351 H   0  0  0  0  0  0  0  0  0  0  0  0
    2.1225   -0.0256   -0.0812 H   0  0  0  0  0  0  0  0  0  0  0  0
   -0.5241   -1.4322    0.1927 H   0  0  0  0  0  0  0  0  0  0  0  0
    0.9025   -2.0943   -0.5685 H   0  0  0  0  0  0  0  0  0  0  0  0
    0.6958   -2.8886    1.7406 H   0  0  0  0  0  0  0  0  0  0  0  0
    2.1225   -1.8984    1.5478 H   0  0  0  0  0  0  0  0  0  0  0  0
    0.9025   -1.2861    3.5830 H   0  0  0  0  0  0  0  0  0  0  0  0
    0.9025    0.0323    2.4363 H   0  0  0  0  0  0  0  0  0  0  0  0
   -1.3308   -0.2959    3.3903 H   0  0  0  0  0  0  0  0  0  0  0  0
   -1.3308   -0.6298    1.6752 H   0  0  0  0  0  0  0  0  0  0  0  0
   -2.5508   -2.3646    2.9029 H   0  0  0  0  0  0  0  0  0  0  0  0
   -1.1242   -3.0267    2.1417 H   0  0  0  0  0  0  0  0  0  0  0  0
   -1.3308   -3.8210    4.4508 H   0  0  0  0  0  0  0  0  0  0  0  0
    0.0958   -2.8308    4.2580 H   0  0  0  0  0  0  0  0  0  0  0  0
   -1.1242   -2.2185    6.2933 H   0  0  0  0  0  0  0  0  0  0  0  0
   -1.1242   -0.9001    5.1466 H   0  0  0  0  0  0  0  0  0  0  0  0
   -3.3575   -1.2283    6.1005 H   0  0  0  0  0  0  0  0  0  0  0  0
   -3.3575   -1.5622    4.3854 H   0  0  0  0  0  0  0  0  0  0  0  0
   -4.5775   -3.2970    5.6132 H   0  0  0  0  0  0  0  0  0  0  0  0
   -3.1508   -3.9590    4.8520 H   0  0  0  0  0  0  0  0  0  0  0  0
   -3.3575   -4.7534    7.1611 H   0  0  0  0  0  0  0  0  0  0  0  0
   -1.9308   -3.7632    6.9683 H   0  0  0  0  0  0  0  0  0  0  0  0
   -3.1509   -3.1509    9.0035 H   0  0  0  0  0  0  0  0  0  0  0  0
   -3.1508   -1.8325    7.8568 H   0  0  0  0  0  0  0  0  0  0  0  0
   -5.3842   -2.1607    8.8108 H   0  0  0  0  0  0  0  0  0  0  0  0
   -5.3842   -2.4945    7.0957 H   0  0  0  0  0  0  0  0  0  0  0  0
   -5.2757   -5.0294    7.6616 H   0  0  0  0  0  0  0  0  0  0  0  0
   -6.5748   -3.6711   10.0718 H   0  0  0  0  0  0  0  0  0  0  0  0
   -6.4663   -6.5398    8.9226 H   0  0  0  0  0  0  0  0  0  0  0  0
   -5.3496   -6.3133   10.9497 H   0  0  0  0  0  0  0  0  0  0  0  0
   -8.6996   -5.2158   10.4449 H   0  0  0  0  0  0  0  0  0  0  0  0
   -9.9196   -5.4116    8.3286 H   0  0  0  0  0  0  0  0  0  0  0  0
   -8.4930   -4.4214    8.1359 H   0  0  0  0  0  0  0  0  0  0  0  0
   -7.3763   -6.2902    7.3185 H   0  0  0  0  0  0  0  0  0  0  0  0
   -8.5866   -8.0009    9.3177 H   0  0  0  0  0  0  0  0  0  0  0  0
  -10.5803   -5.6109   11.5214 H   0  0  0  0  0  0  0  0  0  0  0  0
  -10.6605   -6.7388   12.8535 H   0  0  0  0  0  0  0  0  0  0  0  0
   -9.0371   -4.9608   13.3106 H   0  0  0  0  0  0  0  0  0  0  0  0
   -8.2436   -6.5129   13.1902 H   0  0  0  0  0  0  0  0  0  0  0  0
   -7.0131   -4.8031   11.9381 H   0  0  0  0  0  0  0  0  0  0  0  0
   -7.6463   -6.0270   10.8637 H   0  0  0  0  0  0  0  0  0  0  0  0
   -8.0496   -3.7828    9.9658 H   0  0  0  0  0  0  0  0  0  0  0  0
   -9.5564   -4.5825   10.3439 H   0  0  0  0  0  0  0  0  0  0  0  0
   -8.1403   -2.5982   12.1092 H   0  0  0  0  0  0  0  0  0  0  0  0
   -9.5670   -2.2701   11.1552 H   0  0  0  0  0  0  0  0  0  0  0  0
   -9.6471   -3.3979   12.4873 H   0  0  0  0  0  0  0  0  0  0  0  0
  1  2  1  0  0  0  0
  1 29  1  0  0  0  0
  1 30  1  0  0  0  0
  1 31  1  0  0  0  0
  2  3  1  0  0  0  0
  2 32  1  0  0  0  0
  2 33  1  0  0  0  0
  3  4  1  0  0  0  0
  3 34  1  0  0  0  0
  3 35  1  0  0  0  0
  4  5  1  0  0  0  0
  4 36  1  0  0  0  0
  4 37  1  0  0  0  0
  5  6  1  0  0  0  0
  5 38  1  0  0  0  0
  5 39  1  0  0  0  0
  6  7  1  0  0  0  0
  6 40  1  0  0  0  0
  6 41  1  0  0  0  0
  7  8  1  0  0  0  0
  7 42  1  0  0  0  0
  7 43  1  0  0  0  0
  8  9  1  0  0  0  0
  8 44  1  0  0  0  0
  8 45  1  0  0  0  0
  9 10  1  0  0  0  0
  9 46  1  0  0  0  0
  9 47  1  0  0  0  0
 10 11  1  0  0  0  0
 10 48  1  0  0  0  0
 10 49  1  0  0  0  0
 11 12  1  0  0  0  0
 11 50  1  0  0  0  0
 11 51  1  0  0  0  0
 12 13  1  0  0  0  0
 12 52  1  0  0  0  0
 12 53  1  0  0  0  0
 13 14  1  0  0  0  0
 13 54  1  0  0  0  0
 13 55  1  0  0  0  0
 14 15  2  0  0  0  0
 14 56  1  0  0  0  0
 15 16  1  0  0  0  0
 15 57  1  0  0  0  0
 16 17  1  0  0  0  0
 16 18  1  0  0  0  0
 16 58  1  0  0  0  0
 17 59  1  0  0  0  0
 18 19  1  0  0  0  0
 18 21  1  0  0  0  0
 18 60  1  0  0  0  0
 19 20  1  0  0  0  0
 19 61  1  0  0  0  0
 19 62  1  0  0  0  0
 20 63  1  0  0  0  0
 21 22  1  0  0  0  0
 21 64  1  0  0  0  0
 22 23  2  0  0  0  0
 22 24  1  0  0  0  0
 24 25  1  0  0  0  0
 24 65  1  0  0  0  0
 24 66  1  0  0  0  0
 25 26  1  0  0  0  0
 25 67  1  0  0  0  0
 25 68  1  0  0  0  0
 26 27  1  0  0  0  0
 26 69  1  0  0  0  0
 26 70  1  0  0  0  0
 27 28  1  0  0  0  0
 27 71  1  0  0  0  0
 27 72  1  0  0  0  0
 28 73  1  0  0  0  0
 28 74  1  0  0  0  0
 28 75  1  0  0  0  0
M  END
