REMARK  Name = 
REMARK  2 active torsions:
REMARK  status: ('A' for Active; 'I' for Inactive)
REMARK    1  A    between atoms: C_1  and  N_2
REMARK    2  A    between atoms: C_14  and  O_15
REMARK                            x       y       z     vdW  Elec       q    Type
REMARK                         _______ _______ _______ _____ _____    ______ ____
ROOT
ATOM      1  C   UNL     1       1.079   0.044  -0.043  0.00  0.00    +0.000 C 
ATOM      2  N   UNL     1       0.589   1.389   0.291  0.00  0.00    +0.000 NA
ATOM      3  C   UNL     1       0.370   1.488   1.698  0.00  0.00    +0.000 C 
ATOM      4  C   UNL     1       0.142   2.721   2.220  0.00  0.00    +0.000 A 
ATOM      5  C   UNL     1       0.454   3.877   1.526  0.00  0.00    +0.000 A 
ATOM      6  C   UNL     1       0.204   5.112   2.098  0.00  0.00    +0.000 A 
ATOM      7  C   UNL     1      -0.348   5.194   3.361  0.00  0.00    +0.000 A 
ATOM      8  C   UNL     1      -0.664   4.041   4.060  0.00  0.00    +0.000 A 
ATOM      9  C   UNL     1      -0.420   2.808   3.493  0.00  0.00    +0.000 A 
ATOM     10  O   UNL     1      -0.849   1.712   4.445  0.00  0.00    +0.000 OA
ATOM     11  C   UNL     1      -0.973   2.399   5.821  0.00  0.00    +0.000 C 
ATOM     12  O   UNL     1      -1.273   3.863   5.434  0.00  0.00    +0.000 OA
ATOM     13  C   UNL     1       1.058   3.824   0.145  0.00  0.00    +0.000 C 
ATOM     14  C   UNL     1       2.165   4.861   0.041  0.00  0.00    +0.000 C 
ATOM     15  C   UNL     1       1.589   6.245   0.293  0.00  0.00    +0.000 C 
ATOM     16  C   UNL     1       0.979   6.294   1.684  0.00  0.00    +0.000 A 
ATOM     17  C   UNL     1       0.710   5.093   2.399  0.00  0.00    +0.000 A 
ATOM     18  C   UNL     1      -0.114   5.139   3.535  0.00  0.00    +0.000 A 
ATOM     19  C   UNL     1      -0.400   6.282   4.087  0.00  0.00    +0.000 A 
ATOM     20  C   UNL     1       0.121   7.468   3.554  0.00  0.00    +0.000 A 
ATOM     21  C   UNL     1       0.688   7.463   2.256  0.00  0.00    +0.000 A 
ATOM     22  C   UNL     1       1.641   2.432  -0.110  0.00  0.00    +0.000 C 
ATOM     23  O   UNL     1      -1.242   6.327   5.229  0.00  0.00    +0.000 OA
ATOM     24  C   UNL     1      -1.555   7.574   5.832  0.00  0.00    +0.000 C 
ATOM     25  O   UNL     1      -0.634   3.937   4.083  0.00  0.00    +0.000 OA
ENDROOT
BRANCH  14  26
ATOM     26  O   UNL     1       2.736   4.815  -1.259  0.00  0.00    +0.000 OA
ATOM     27  H   UNL     1       3.115   3.904  -1.425  0.00  0.00    +0.000 HD
ENDBRANCH  14  26
TORSDOF 1
