
 OpenBabel03132514253D

 56 61  0  0  0  0  0  0  0  0999 V2000
    0.9542   -0.0761   -0.0460 O   0  0  0  0  0  0  0  0  0  0  0  0
    0.4809    0.9307    0.8365 C   0  0  0  0  0  0  0  0  0  0  0  0
    0.9876    0.6514    2.2421 C   0  0  0  0  0  0  0  0  0  0  0  0
    1.0923   -0.6606    2.6738 C   0  0  0  0  0  0  0  0  0  0  0  0
    1.2328   -0.7935    4.0754 C   0  0  0  0  0  0  0  0  0  0  0  0
    1.5963    0.1824    4.8875 C   0  0  0  0  0  0  0  0  0  0  0  0
    2.0573   -0.0894    6.3102 C   0  0  0  0  0  0  0  0  0  0  0  0
    3.1358   -0.9324    6.5215 C   0  0  0  0  0  0  0  0  0  0  0  0
    3.2561   -1.3859    7.8564 C   0  0  0  0  0  0  0  0  0  0  0  0
    2.6665   -0.8221    8.8949 C   0  0  0  0  0  0  0  0  0  0  0  0
    3.0913   -1.1298   10.3215 C   0  0  0  0  0  0  0  0  0  0  0  0
    4.3621   -0.8081   10.7551 N   0  0  0  0  0  0  0  0  0  0  0  0
    4.7177   -1.0411   12.0870 C   0  0  0  0  0  0  0  0  0  0  0  0
    5.9399   -0.8277   12.8606 N   0  0  0  0  0  0  0  0  0  0  0  0
    5.7173   -1.2281   14.0781 C   0  0  0  0  0  0  0  0  0  0  0  0
    6.6655   -1.1838   15.1342 O   0  0  0  0  0  0  0  0  0  0  0  0
    7.9692   -0.6733   14.8969 C   0  0  0  0  0  0  0  0  0  0  0  0
    7.9028    0.6026   14.4838 C   0  0  0  0  0  0  0  0  0  0  0  0
    7.8902    0.6462   13.0297 O   0  0  0  0  0  0  0  0  0  0  0  0
    8.5368   -0.6663   12.5472 C   0  0  0  0  0  0  0  0  0  0  0  0
    9.9335   -0.3764   12.0385 C   0  0  0  0  0  0  0  0  0  0  0  0
    9.9744    0.8637   11.3480 O   0  0  0  0  0  0  0  0  0  0  0  0
   10.7556   -0.3559   13.1236 C   0  0  0  0  0  0  0  0  0  0  0  0
   10.2630   -1.2766   14.1368 O   0  0  0  0  0  0  0  0  0  0  0  0
    8.7572   -1.4576   13.8673 C   0  0  0  0  0  0  0  0  0  0  0  0
    4.4096   -1.7084   14.1966 N   0  0  0  0  0  0  0  0  0  0  0  0
    3.7800   -1.5993   12.9735 C   0  0  0  0  0  0  0  0  0  0  0  0
    2.5048   -1.9160   12.5194 C   0  0  0  0  0  0  0  0  0  0  0  0
    2.1631   -1.6780   11.2071 C   0  0  0  0  0  0  0  0  0  0  0  0
    0.5242   -2.0728   10.6359 Cl  0  0  0  0  0  0  0  0  0  0  0  0
    1.6535    0.0534    8.6178 C   0  0  0  0  0  0  0  0  0  0  0  0
    1.3902    0.4438    7.3270 C   0  0  0  0  0  0  0  0  0  0  0  0
    1.5357    1.4505    4.3798 C   0  0  0  0  0  0  0  0  0  0  0  0
    1.2748    1.6667    3.0482 C   0  0  0  0  0  0  0  0  0  0  0  0
    1.9542   -0.0761   -0.0460 H   0  0  0  0  0  0  0  0  0  0  0  0
    0.8376    1.8858    0.5120 H   0  0  0  0  0  0  0  0  0  0  0  0
   -0.5891    0.9307    0.8365 H   0  0  0  0  0  0  0  0  0  0  0  0
    1.0690   -1.4977    2.0077 H   0  0  0  0  0  0  0  0  0  0  0  0
    1.0305   -1.7512    4.5074 H   0  0  0  0  0  0  0  0  0  0  0  0
    3.8163   -1.2150    5.7456 H   0  0  0  0  0  0  0  0  0  0  0  0
    3.8672   -2.2455    8.0370 H   0  0  0  0  0  0  0  0  0  0  0  0
    8.4801   -0.7568   15.8334 H   0  0  0  0  0  0  0  0  0  0  0  0
    7.0071    1.0511   14.8599 H   0  0  0  0  0  0  0  0  0  0  0  0
    8.7534    1.1395   14.8486 H   0  0  0  0  0  0  0  0  0  0  0  0
    7.9506   -1.1525   11.7956 H   0  0  0  0  0  0  0  0  0  0  0  0
   10.2428   -1.1415   11.3574 H   0  0  0  0  0  0  0  0  0  0  0  0
    9.6889    1.5978   11.9641 H   0  0  0  0  0  0  0  0  0  0  0  0
   10.7785    0.6340   13.5290 H   0  0  0  0  0  0  0  0  0  0  0  0
   11.7412   -0.6489   12.8274 H   0  0  0  0  0  0  0  0  0  0  0  0
    8.4725   -2.4890   13.8623 H   0  0  0  0  0  0  0  0  0  0  0  0
    3.9893   -2.0793   15.0488 H   0  0  0  0  0  0  0  0  0  0  0  0
    1.7892   -2.3445   13.1895 H   0  0  0  0  0  0  0  0  0  0  0  0
    1.0571    0.4400    9.4177 H   0  0  0  0  0  0  0  0  0  0  0  0
    0.6409    1.1843    7.1395 H   0  0  0  0  0  0  0  0  0  0  0  0
    1.6938    2.2865    5.0287 H   0  0  0  0  0  0  0  0  0  0  0  0
    1.3032    2.6624    2.6573 H   0  0  0  0  0  0  0  0  0  0  0  0
  1  2  1  0  0  0  0
  1 35  1  0  0  0  0
  2  3  1  0  0  0  0
  2 36  1  0  0  0  0
  2 37  1  0  0  0  0
  3  4  1  0  0  0  0
  3 34  2  0  0  0  0
  4  5  2  0  0  0  0
  4 38  1  0  0  0  0
  5  6  1  0  0  0  0
  5 39  1  0  0  0  0
  6  7  1  0  0  0  0
  6 33  2  0  0  0  0
  7  8  1  0  0  0  0
  7 32  2  0  0  0  0
  8  9  2  0  0  0  0
  8 40  1  0  0  0  0
  9 10  1  0  0  0  0
  9 41  1  0  0  0  0
 10 11  1  0  0  0  0
 10 31  2  0  0  0  0
 11 12  1  0  0  0  0
 11 29  2  0  0  0  0
 12 13  2  0  0  0  0
 13 14  1  0  0  0  0
 13 27  1  0  0  0  0
 14 15  2  0  0  0  0
 15 16  1  0  0  0  0
 15 26  1  0  0  0  0
 16 17  1  0  0  0  0
 17 18  1  0  0  0  0
 17 25  1  0  0  0  0
 17 42  1  0  0  0  0
 18 19  1  0  0  0  0
 18 43  1  0  0  0  0
 18 44  1  0  0  0  0
 19 20  1  0  0  0  0
 20 21  1  0  0  0  0
 20 25  1  0  0  0  0
 20 45  1  0  0  0  0
 21 22  1  0  0  0  0
 21 23  1  0  0  0  0
 21 46  1  0  0  0  0
 22 47  1  0  0  0  0
 23 24  1  0  0  0  0
 23 48  1  0  0  0  0
 23 49  1  0  0  0  0
 24 25  1  0  0  0  0
 25 50  1  0  0  0  0
 26 27  1  0  0  0  0
 26 51  1  0  0  0  0
 27 28  2  0  0  0  0
 28 29  1  0  0  0  0
 28 52  1  0  0  0  0
 29 30  1  0  0  0  0
 31 32  1  0  0  0  0
 31 53  1  0  0  0  0
 32 54  1  0  0  0  0
 33 34  1  0  0  0  0
 33 55  1  0  0  0  0
 34 56  1  0  0  0  0
M  END
