REMARK  Name = 
REMARK  8 active torsions:
REMARK  status: ('A' for Active; 'I' for Inactive)
REMARK    1  A    between atoms: C_1  and  O_2
REMARK    2  A    between atoms: O_2  and  C_3
REMARK    3  A    between atoms: C_6  and  C_7
REMARK    4  A    between atoms: C_13  and  C_14
REMARK    5  A    between atoms: C_17  and  C_18
REMARK    6  A    between atoms: C_26  and  N_27
REMARK    7  A    between atoms: C_32  and  O_33
REMARK    8  A    between atoms: O_33  and  C_34
REMARK                            x       y       z     vdW  Elec       q    Type
REMARK                         _______ _______ _______ _____ _____    ______ ____
ROOT
ATOM      1  C   UNL     1       1.953  -6.400   0.555  0.00  0.00    +0.000 A 
ATOM      2  C   UNL     1       1.399  -7.286  -0.315  0.00  0.00    +0.000 A 
ATOM      3  N   UNL     1       2.012  -8.523  -0.218  0.00  0.00    +0.000 N 
ATOM      4  C   UNL     1       2.982  -8.434   0.766  0.00  0.00    +0.000 A 
ATOM      5  N   UNL     1       3.746  -9.451   1.160  0.00  0.00    +0.000 NA
ATOM      6  C   UNL     1       4.579  -9.150   2.162  0.00  0.00    +0.000 A 
ATOM      7  C   UNL     1       4.643  -7.900   2.778  0.00  0.00    +0.000 A 
ATOM      8  C   UNL     1       3.840  -6.865   2.336  0.00  0.00    +0.000 A 
ATOM      9  C   UNL     1       2.972  -7.122   1.283  0.00  0.00    +0.000 A 
ATOM     10  H   UNL     1       1.790  -9.350  -0.772  0.00  0.00    +0.000 HD
ENDROOT
BRANCH   1  14
ATOM     11  C   UNL     1       0.808  -2.290   0.748  0.00  0.00    +0.000 A 
ATOM     12  C   UNL     1      -0.167  -3.260   0.914  0.00  0.00    +0.000 A 
ATOM     13  C   UNL     1       0.347  -4.571   1.052  0.00  0.00    +0.000 A 
ATOM     14  C   UNL     1       1.568  -4.937   0.706  0.00  0.00    +0.000 A 
ATOM     15  C   UNL     1       2.467  -3.929   0.489  0.00  0.00    +0.000 A 
ATOM     16  C   UNL     1       2.064  -2.616   0.469  0.00  0.00    +0.000 A 
BRANCH  11  18
ATOM     17  C   UNL     1       0.938   0.025  -0.075  0.00  0.00    +0.000 C 
ATOM     18  O   UNL     1       0.465  -0.918   0.876  0.00  0.00    +0.000 OA
ENDBRANCH  11  18
BRANCH  16  19
ATOM     19  O   UNL     1       3.001  -1.598   0.148  0.00  0.00    +0.000 OA
ATOM     20  C   UNL     1       2.592  -0.238   0.125  0.00  0.00    +0.000 C 
ENDBRANCH  16  19
ENDBRANCH   1  14
BRANCH   7  21
ATOM     21  C   UNL     1       5.600  -7.674   3.937  0.00  0.00    +0.000 A 
ATOM     22  C   UNL     1       5.100  -7.277   5.167  0.00  0.00    +0.000 A 
ATOM     23  C   UNL     1       6.088  -6.804   6.062  0.00  0.00    +0.000 A 
ATOM     24  C   UNL     1       7.383  -7.032   5.936  0.00  0.00    +0.000 A 
ATOM     25  C   UNL     1       7.805  -7.489   4.719  0.00  0.00    +0.000 A 
ATOM     26  C   UNL     1       6.902  -7.847   3.747  0.00  0.00    +0.000 A 
BRANCH  24  27
ATOM     27  C   UNL     1       8.352  -6.801   7.085  0.00  0.00    +0.000 C 
ATOM     28  O   UNL     1       7.922  -6.376   8.203  0.00  0.00    +0.000 OA
ATOM     29  N   UNL     1       9.786  -7.068   6.902  0.00  0.00    +0.000 N 
ATOM     30  C   UNL     1      10.623  -6.388   5.896  0.00  0.00    +0.000 C 
ATOM     31  C   UNL     1      11.295  -7.422   5.021  0.00  0.00    +0.000 C 
ATOM     32  O   UNL     1      12.079  -8.324   5.802  0.00  0.00    +0.000 OA
ATOM     33  C   UNL     1      11.246  -8.999   6.746  0.00  0.00    +0.000 C 
ATOM     34  C   UNL     1      10.590  -8.017   7.698  0.00  0.00    +0.000 C 
ENDBRANCH  24  27
BRANCH  25  35
ATOM     35  N   UNL     1       9.245  -7.597   4.445  0.00  0.00    +0.000 N 
ATOM     36  H   UNL     1       9.922  -7.333   5.161  0.00  0.00    +0.000 HD
ATOM     37  H   UNL     1       9.568  -7.937   3.539  0.00  0.00    +0.000 HD
ENDBRANCH  25  35
ENDBRANCH   7  21
TORSDOF 6
