REMARK  Name = 
REMARK  13 active torsions:
REMARK  status: ('A' for Active; 'I' for Inactive)
REMARK    1  A    between atoms: C_1  and  O_2
REMARK    2  A    between atoms: O_2  and  C_3
REMARK    3  A    between atoms: N_10  and  C_11
REMARK    4  A    between atoms: C_21  and  C_22
REMARK    5  A    between atoms: C_22  and  N_23
REMARK    6  A    between atoms: N_23  and  C_24
REMARK    7  A    between atoms: N_23  and  C_29
REMARK    8  A    between atoms: C_24  and  C_25
REMARK    9  A    between atoms: C_25  and  N_26
REMARK   10  A    between atoms: N_26  and  C_27
REMARK   11  A    between atoms: N_26  and  C_28
REMARK   12  A    between atoms: C_29  and  C_30
REMARK   13  A    between atoms: C_29  and  C_31
REMARK                            x       y       z     vdW  Elec       q    Type
REMARK                         _______ _______ _______ _____ _____    ______ ____
ROOT
ATOM      1  C   UNL     1       0.965  -2.368   0.584  0.00  0.00    +0.000 A 
ATOM      2  C   UNL     1       0.043  -3.373   0.684  0.00  0.00    +0.000 A 
ATOM      3  C   UNL     1       0.421  -4.711   0.436  0.00  0.00    +0.000 A 
ATOM      4  N   UNL     1      -0.518  -5.709   0.508  0.00  0.00    +0.000 NA
ATOM      5  C   UNL     1      -0.099  -6.921   0.271  0.00  0.00    +0.000 A 
ATOM      6  N   UNL     1       1.181  -7.305  -0.028  0.00  0.00    +0.000 NA
ATOM      7  C   UNL     1       2.091  -6.363  -0.087  0.00  0.00    +0.000 A 
ATOM      8  N   UNL     1       3.483  -6.734  -0.380  0.00  0.00    +0.000 N 
ATOM      9  C   UNL     1       1.770  -4.992   0.125  0.00  0.00    +0.000 A 
ATOM     10  C   UNL     1       2.708  -3.938   0.042  0.00  0.00    +0.000 A 
ATOM     11  C   UNL     1       2.306  -2.651   0.261  0.00  0.00    +0.000 A 
ATOM     12  H   UNL     1       4.203  -6.013  -0.429  0.00  0.00    +0.000 HD
ENDROOT
BRANCH   8  13
ATOM     13  C   UNL     1       3.838  -8.143  -0.602  0.00  0.00    +0.000 A 
ATOM     14  C   UNL     1       4.768  -8.801   0.175  0.00  0.00    +0.000 A 
ATOM     15  C   UNL     1       5.101 -10.127  -0.070  0.00  0.00    +0.000 A 
ATOM     16  C   UNL     1       4.479 -10.796  -1.123  0.00  0.00    +0.000 A 
ATOM     17  C   UNL     1       3.546 -10.135  -1.900  0.00  0.00    +0.000 A 
ATOM     18 CL   UNL     1       2.736 -10.969  -3.182  0.00  0.00    +0.000 Cl
ATOM     19  C   UNL     1       3.240  -8.820  -1.634  0.00  0.00    +0.000 A 
ATOM     20  F   UNL     1       2.313  -8.191  -2.385  0.00  0.00    +0.000 F 
ENDBRANCH   8  13
BRANCH   1  22
ATOM     21  C   UNL     1       1.095   0.010  -0.028  0.00  0.00    +0.000 C 
ATOM     22  O   UNL     1       0.622  -1.014   0.835  0.00  0.00    +0.000 OA
ENDBRANCH   1  22
BRANCH  11  23
ATOM     23  C   UNL     1       3.313  -1.518   0.156  0.00  0.00    +0.000 C 
BRANCH  23  24
ATOM     24  N   UNL     1       4.391  -1.727   1.133  0.00  0.00    +0.000 NA
BRANCH  24  25
ATOM     25  C   UNL     1       3.824  -1.755   2.489  0.00  0.00    +0.000 C 
ATOM     26  C   UNL     1       3.131  -0.433   2.776  0.00  0.00    +0.000 C 
BRANCH  25  27
ATOM     27  C   UNL     1       2.818  -2.889   2.595  0.00  0.00    +0.000 C 
ATOM     28  N   UNL     1       3.023  -3.966   3.574  0.00  0.00    +0.000 N 
ATOM     29  O   UNL     1       1.798  -2.906   1.835  0.00  0.00    +0.000 OA
ATOM     30  H   UNL     1       2.347  -4.727   3.645  0.00  0.00    +0.000 HD
ATOM     31  H   UNL     1       3.841  -3.952   4.183  0.00  0.00    +0.000 HD
ENDBRANCH  25  27
ENDBRANCH  24  25
BRANCH  24  32
ATOM     32  C   UNL     1       5.365  -0.631   1.032  0.00  0.00    +0.000 C 
BRANCH  32  33
ATOM     33  C   UNL     1       4.671   0.691   1.318  0.00  0.00    +0.000 C 
BRANCH  33  34
ATOM     34  N   UNL     1       4.104   0.663   2.675  0.00  0.00    +0.000 NA
ATOM     35  C   UNL     1       3.433   1.941   2.952  0.00  0.00    +0.000 C 
ATOM     36  C   UNL     1       3.131  -0.433   2.776  0.00  0.00    +0.000 C 
ENDBRANCH  33  34
ENDBRANCH  32  33
ENDBRANCH  24  32
ENDBRANCH  23  24
ENDBRANCH  11  23
TORSDOF 9
