
 OpenBabel03132514253D

 70 75  0  0  0  0  0  0  0  0999 V2000
    1.0413    0.0595   -0.0690 C   0  0  0  0  0  0  0  0  0  0  0  0
    0.5346    0.5519    1.2769 C   0  0  0  0  0  0  0  0  0  0  0  0
    1.0413    1.9636    1.5234 C   0  0  0  0  0  0  0  0  0  0  0  0
   -0.8854    0.5518    1.2769 O   0  0  0  0  0  0  0  0  0  0  0  0
    1.0413   -0.3675    2.3762 C   0  0  0  0  0  0  0  0  0  0  0  0
    2.5607   -0.3218    2.2300 C   0  0  0  0  0  0  0  0  0  0  0  0
    2.9988   -0.9841    0.9417 C   0  0  0  0  0  0  0  0  0  0  0  0
    2.5351   -2.3768    0.8951 N   0  0  0  0  0  0  0  0  0  0  0  0
    3.0195   -3.0141   -0.3378 C   0  0  0  0  0  0  0  0  0  0  0  0
    2.4811   -2.2606   -1.5431 C   0  0  0  0  0  0  0  0  0  0  0  0
    2.7678   -0.9296   -1.7435 C   0  0  0  0  0  0  0  0  0  0  0  0
    2.5336   -0.3985   -3.0346 C   0  0  0  0  0  0  0  0  0  0  0  0
    1.4396   -0.9285   -3.7092 C   0  0  0  0  0  0  0  0  0  0  0  0
    0.8275   -0.2914   -4.6894 N   0  0  0  0  0  0  0  0  0  0  0  0
   -0.2124   -0.8411   -5.2935 C   0  0  0  0  0  0  0  0  0  0  0  0
   -0.8947   -0.0804   -6.4188 C   0  0  0  0  0  0  0  0  0  0  0  0
   -2.1605    0.2771   -6.3820 C   0  0  0  0  0  0  0  0  0  0  0  0
   -2.8940    0.0759   -5.2909 F   0  0  0  0  0  0  0  0  0  0  0  0
   -2.7123    0.8705   -7.5122 C   0  0  0  0  0  0  0  0  0  0  0  0
   -1.8104    1.4992   -8.3994 C   0  0  0  0  0  0  0  0  0  0  0  0
   -0.5631    0.8942   -8.5435 C   0  0  0  0  0  0  0  0  0  0  0  0
    0.2023    1.1007   -9.6887 N   0  0  0  0  0  0  0  0  0  0  0  0
   -0.2766    1.9203  -10.7080 C   0  0  0  0  0  0  0  0  0  0  0  0
    1.1571   -0.5189   -7.6923 C   0  0  0  0  0  0  0  0  0  0  0  0
   -0.1264    0.1230   -7.5703 C   0  0  0  0  0  0  0  0  0  0  0  0
   -0.6769   -2.0261   -4.9528 N   0  0  0  0  0  0  0  0  0  0  0  0
   -0.1189   -2.7359   -3.9782 C   0  0  0  0  0  0  0  0  0  0  0  0
   -0.6499   -4.0564   -3.6106 N   0  0  0  0  0  0  0  0  0  0  0  0
   -0.8332   -5.3276   -4.3345 C   0  0  0  0  0  0  0  0  0  0  0  0
   -2.2719   -5.7755   -4.2062 C   0  0  0  0  0  0  0  0  0  0  0  0
   -2.6431   -5.9189   -2.8353 O   0  0  0  0  0  0  0  0  0  0  0  0
   -2.4935   -4.6709   -2.1580 C   0  0  0  0  0  0  0  0  0  0  0  0
   -1.0531   -4.1964   -2.1967 C   0  0  0  0  0  0  0  0  0  0  0  0
    0.9792   -2.2004   -3.3141 C   0  0  0  0  0  0  0  0  0  0  0  0
    1.6140   -2.8673   -2.3027 N   0  0  0  0  0  0  0  0  0  0  0  0
    1.0737   -2.4022    0.9156 C   0  0  0  0  0  0  0  0  0  0  0  0
    0.5375   -1.7992    2.2034 C   0  0  0  0  0  0  0  0  0  0  0  0
    0.6846    0.7067   -0.8428 H   0  0  0  0  0  0  0  0  0  0  0  0
    0.6846   -0.9343   -0.2425 H   0  0  0  0  0  0  0  0  0  0  0  0
    2.1113    0.0595   -0.0690 H   0  0  0  0  0  0  0  0  0  0  0  0
    0.6846    2.6107    0.7495 H   0  0  0  0  0  0  0  0  0  0  0  0
    0.6846    2.3102    2.4708 H   0  0  0  0  0  0  0  0  0  0  0  0
    2.1113    1.9636    1.5234 H   0  0  0  0  0  0  0  0  0  0  0  0
   -1.2187    1.1567    0.5536 H   0  0  0  0  0  0  0  0  0  0  0  0
    0.6981   -0.0546    3.3402 H   0  0  0  0  0  0  0  0  0  0  0  0
    2.8719    0.7017    2.2115 H   0  0  0  0  0  0  0  0  0  0  0  0
    3.0078   -0.8333    3.0566 H   0  0  0  0  0  0  0  0  0  0  0  0
    2.5746   -0.4506    0.1169 H   0  0  0  0  0  0  0  0  0  0  0  0
    4.0670   -0.9666    0.8824 H   0  0  0  0  0  0  0  0  0  0  0  0
    4.0892   -2.9939   -0.3532 H   0  0  0  0  0  0  0  0  0  0  0  0
    2.6815   -4.0288   -0.3714 H   0  0  0  0  0  0  0  0  0  0  0  0
    3.1530   -0.3194   -0.9534 H   0  0  0  0  0  0  0  0  0  0  0  0
    3.1562    0.3594   -3.4622 H   0  0  0  0  0  0  0  0  0  0  0  0
   -3.7655    0.8518   -7.7000 H   0  0  0  0  0  0  0  0  0  0  0  0
   -2.0705    2.3904   -8.9313 H   0  0  0  0  0  0  0  0  0  0  0  0
    1.1135    0.6517   -9.7809 H   0  0  0  0  0  0  0  0  0  0  0  0
   -1.2325    2.3913  -10.6112 H   0  0  0  0  0  0  0  0  0  0  0  0
    1.5180   -1.1471   -6.9049 H   0  0  0  0  0  0  0  0  0  0  0  0
   -0.1883   -6.0727   -3.9174 H   0  0  0  0  0  0  0  0  0  0  0  0
   -0.5935   -5.1878   -5.3679 H   0  0  0  0  0  0  0  0  0  0  0  0
   -2.9006   -5.0344   -4.6538 H   0  0  0  0  0  0  0  0  0  0  0  0
   -2.3907   -6.7167   -4.7011 H   0  0  0  0  0  0  0  0  0  0  0  0
   -2.7799   -4.8032   -1.1355 H   0  0  0  0  0  0  0  0  0  0  0  0
   -3.1149   -3.9398   -2.6315 H   0  0  0  0  0  0  0  0  0  0  0  0
   -0.4190   -4.9008   -1.7001 H   0  0  0  0  0  0  0  0  0  0  0  0
   -0.9698   -3.2517   -1.7013 H   0  0  0  0  0  0  0  0  0  0  0  0
    0.7492   -3.4200    0.8544 H   0  0  0  0  0  0  0  0  0  0  0  0
    0.7020   -1.8401    0.0845 H   0  0  0  0  0  0  0  0  0  0  0  0
    0.8796   -2.3877    3.0290 H   0  0  0  0  0  0  0  0  0  0  0  0
   -0.5320   -1.7943    2.1709 H   0  0  0  0  0  0  0  0  0  0  0  0
  1  2  1  0  0  0  0
  1 38  1  0  0  0  0
  1 39  1  0  0  0  0
  1 40  1  0  0  0  0
  2  3  1  0  0  0  0
  2  4  1  0  0  0  0
  2  5  1  0  0  0  0
  3 41  1  0  0  0  0
  3 42  1  0  0  0  0
  3 43  1  0  0  0  0
  4 44  1  0  0  0  0
  5  6  1  0  0  0  0
  5 37  1  0  0  0  0
  5 45  1  0  0  0  0
  6  7  1  0  0  0  0
  6 46  1  0  0  0  0
  6 47  1  0  0  0  0
  7  8  1  0  0  0  0
  7 48  1  0  0  0  0
  7 49  1  0  0  0  0
  8  9  1  0  0  0  0
  8 36  1  0  0  0  0
  9 10  1  0  0  0  0
  9 50  1  0  0  0  0
  9 51  1  0  0  0  0
 10 11  1  0  0  0  0
 10 35  2  0  0  0  0
 11 12  2  0  0  0  0
 11 52  1  0  0  0  0
 12 13  1  0  0  0  0
 12 53  1  0  0  0  0
 13 14  1  0  0  0  0
 13 34  2  0  0  0  0
 14 15  2  0  0  0  0
 15 16  1  0  0  0  0
 15 26  1  0  0  0  0
 16 17  1  0  0  0  0
 16 25  2  0  0  0  0
 17 18  1  0  0  0  0
 17 19  2  0  0  0  0
 19 20  1  0  0  0  0
 19 54  1  0  0  0  0
 20 21  2  0  0  0  0
 20 55  1  0  0  0  0
 21 22  1  0  0  0  0
 21 25  1  0  0  0  0
 22 23  1  0  0  0  0
 22 56  1  0  0  0  0
 23 24  2  0  0  0  0
 23 57  1  0  0  0  0
 24 25  1  0  0  0  0
 24 58  1  0  0  0  0
 26 27  2  0  0  0  0
 27 28  1  0  0  0  0
 27 34  1  0  0  0  0
 28 29  1  0  0  0  0
 28 33  1  0  0  0  0
 29 30  1  0  0  0  0
 29 59  1  0  0  0  0
 29 60  1  0  0  0  0
 30 31  1  0  0  0  0
 30 61  1  0  0  0  0
 30 62  1  0  0  0  0
 31 32  1  0  0  0  0
 32 33  1  0  0  0  0
 32 63  1  0  0  0  0
 32 64  1  0  0  0  0
 33 65  1  0  0  0  0
 33 66  1  0  0  0  0
 34 35  1  0  0  0  0
 36 37  1  0  0  0  0
 36 67  1  0  0  0  0
 36 68  1  0  0  0  0
 37 69  1  0  0  0  0
 37 70  1  0  0  0  0
M  END
