REMARK  Name = 
REMARK  7 active torsions:
REMARK  status: ('A' for Active; 'I' for Inactive)
REMARK    1  A    between atoms: C_1  and  C_2
REMARK    2  A    between atoms: C_2  and  C_3
REMARK    3  A    between atoms: C_2  and  N_4
REMARK    4  A    between atoms: C_2  and  C_28
REMARK    5  A    between atoms: C_5  and  C_7
REMARK    6  A    between atoms: N_13  and  C_14
REMARK    7  A    between atoms: C_17  and  O_18
REMARK                            x       y       z     vdW  Elec       q    Type
REMARK                         _______ _______ _______ _____ _____    ______ ____
ROOT
ATOM      1  C   UNL     1      -1.010   0.510  -3.491  0.00  0.00    +0.000 A 
ATOM      2  C   UNL     1       0.057  -0.097  -4.082  0.00  0.00    +0.000 A 
ATOM      3  C   UNL     1       0.630   0.465  -5.154  0.00  0.00    +0.000 A 
ATOM      4  C   UNL     1       0.170   1.640  -5.683  0.00  0.00    +0.000 A 
ATOM      5  N   UNL     1       0.830   2.158  -6.799  0.00  0.00    +0.000 NA
ATOM      6  C   UNL     1       0.432   3.318  -7.369  0.00  0.00    +0.000 A 
ATOM      7  N   UNL     1       1.148   3.831  -8.546  0.00  0.00    +0.000 N 
ATOM      8  C   UNL     1      -0.654   4.037  -6.854  0.00  0.00    +0.000 A 
ATOM      9  N   UNL     1      -1.178   5.192  -7.292  0.00  0.00    +0.000 NA
ATOM     10  C   UNL     1      -2.185   5.528  -6.531  0.00  0.00    +0.000 A 
ATOM     11  C   UNL     1      -2.356   4.565  -5.535  0.00  0.00    +0.000 A 
ATOM     12  N   UNL     1      -1.383   3.584  -5.713  0.00  0.00    +0.000 N 
ATOM     13  C   UNL     1      -0.941   2.323  -5.100  0.00  0.00    +0.000 A 
ATOM     14  C   UNL     1      -1.520   1.715  -3.987  0.00  0.00    +0.000 A 
ATOM     15  H   UNL     1       1.940   3.313  -8.927  0.00  0.00    +0.000 HD
ENDROOT
BRANCH   7  16
ATOM     16  C   UNL     1       0.724   5.090  -9.174  0.00  0.00    +0.000 C 
ATOM     17  C   UNL     1       0.688   6.440  -8.472  0.00  0.00    +0.000 C 
ATOM     18  C   UNL     1      -0.173   6.410  -7.210  0.00  0.00    +0.000 C 
ATOM     19  C   UNL     1      -1.581   5.954  -7.596  0.00  0.00    +0.000 C 
ATOM     20  C   UNL     1      -1.545   4.602  -8.271  0.00  0.00    +0.000 C 
ATOM     21  C   UNL     1      -0.668   4.597  -9.512  0.00  0.00    +0.000 C 
BRANCH  19  22
ATOM     22  O   UNL     1      -2.454   5.810  -6.471  0.00  0.00    +0.000 OA
ATOM     23  H   UNL     1      -2.105   5.093  -5.868  0.00  0.00    +0.000 HD
ENDBRANCH  19  22
ENDBRANCH   7  16
BRANCH   1  25
ATOM     24  N   UNL     1      -1.036  -0.792  -1.253  0.00  0.00    +0.000 N 
ATOM     25  C   UNL     1      -1.770  -0.152  -2.353  0.00  0.00    +0.000 C 
ATOM     26  O   UNL     1      -3.041  -0.152  -2.353  0.00  0.00    +0.000 OA
ATOM     27  H   UNL     1      -1.546  -1.237  -0.490  0.00  0.00    +0.000 HD
BRANCH  24  29
ATOM     28  C   UNL     1       0.941  -0.080  -0.010  0.00  0.00    +0.000 C 
ATOM     29  C   UNL     1       0.434  -0.792  -1.253  0.00  0.00    +0.000 C 
ATOM     30  C   UNL     1       0.941  -2.226  -1.258  0.00  0.00    +0.000 C 
BRANCH  29  31
ATOM     31  C   UNL     1       0.941  -0.072  -2.492  0.00  0.00    +0.000 A 
ATOM     32  C   UNL     1       0.974   1.350  -2.514  0.00  0.00    +0.000 A 
ATOM     33  C   UNL     1       0.988   2.020  -3.748  0.00  0.00    +0.000 A 
ATOM     34  C   UNL     1       1.243   1.364  -4.842  0.00  0.00    +0.000 A 
ATOM     35  C   UNL     1       1.516  -0.010  -4.790  0.00  0.00    +0.000 A 
ATOM     36  C   UNL     1       1.209  -0.740  -3.615  0.00  0.00    +0.000 A 
ENDBRANCH  29  31
ENDBRANCH  24  29
ENDBRANCH   1  25
TORSDOF 5
