
 OpenBabel03132514253D

 43 46  0  0  0  0  0  0  0  0999 V2000
    0.9655    0.0937   -0.0044 C   0  0  0  0  0  0  0  0  0  0  0  0
    0.4588    1.2207    0.8808 C   0  0  0  0  0  0  0  0  0  0  0  0
    0.9488    2.5071    0.3650 N   0  0  0  0  0  0  0  0  0  0  0  0
   -0.0065    3.5441   -0.0508 C   0  0  0  0  0  0  0  0  0  0  0  0
    0.4172    4.6563   -0.4967 O   0  0  0  0  0  0  0  0  0  0  0  0
   -1.5009    3.2863    0.0526 C   0  0  0  0  0  0  0  0  0  0  0  0
   -2.4494    3.5663   -0.8958 C   0  0  0  0  0  0  0  0  0  0  0  0
   -3.6759    3.2106   -0.4261 N   0  0  0  0  0  0  0  0  0  0  0  0
   -3.5793    2.6660    0.8370 C   0  0  0  0  0  0  0  0  0  0  0  0
   -4.4660    2.1696    1.6979 N   0  0  0  0  0  0  0  0  0  0  0  0
   -4.0763    1.6910    2.8706 C   0  0  0  0  0  0  0  0  0  0  0  0
   -2.7197    1.7154    3.2384 C   0  0  0  0  0  0  0  0  0  0  0  0
   -2.2736    1.1901    4.5932 C   0  0  0  0  0  0  0  0  0  0  0  0
   -3.3129    0.8596    5.6663 C   0  0  0  0  0  0  0  0  0  0  0  0
   -2.5275   -0.2664    4.9893 C   0  0  0  0  0  0  0  0  0  0  0  0
   -1.8333    2.2086    2.3748 N   0  0  0  0  0  0  0  0  0  0  0  0
   -2.2178    2.6851    1.1933 C   0  0  0  0  0  0  0  0  0  0  0  0
   -1.0612    1.2207    0.8808 C   0  0  0  0  0  0  0  0  0  0  0  0
   -1.6966    1.0646    1.9703 O   0  0  0  0  0  0  0  0  0  0  0  0
   -1.7962    1.4012   -0.3794 N   0  0  0  0  0  0  0  0  0  0  0  0
   -3.0172    2.2085   -0.8531 C   0  0  0  0  0  0  0  0  0  0  0  0
   -3.2100    1.1331   -1.9344 C   0  0  0  0  0  0  0  0  0  0  0  0
   -3.8633    1.4462   -3.2707 C   0  0  0  0  0  0  0  0  0  0  0  0
   -4.4052    1.7059   -4.3793 N   0  0  0  0  0  0  0  0  0  0  0  0
   -1.7039    0.8483   -1.8135 C   0  0  0  0  0  0  0  0  0  0  0  0
    0.6088    0.2368   -1.0030 H   0  0  0  0  0  0  0  0  0  0  0  0
    0.6088   -0.8426    0.3710 H   0  0  0  0  0  0  0  0  0  0  0  0
    2.0355    0.0937   -0.0044 H   0  0  0  0  0  0  0  0  0  0  0  0
    0.8155    1.0777    1.8794 H   0  0  0  0  0  0  0  0  0  0  0  0
    1.9516    2.6801    0.2957 H   0  0  0  0  0  0  0  0  0  0  0  0
   -2.2559    3.9974   -1.8558 H   0  0  0  0  0  0  0  0  0  0  0  0
   -4.5492    3.3308   -0.9392 H   0  0  0  0  0  0  0  0  0  0  0  0
   -4.8008    1.2823    3.5436 H   0  0  0  0  0  0  0  0  0  0  0  0
   -1.4071    1.8157    4.5408 H   0  0  0  0  0  0  0  0  0  0  0  0
   -3.4782    1.1642    6.6787 H   0  0  0  0  0  0  0  0  0  0  0  0
   -4.3550    0.9850    5.4585 H   0  0  0  0  0  0  0  0  0  0  0  0
   -2.7884   -1.1598    4.4614 H   0  0  0  0  0  0  0  0  0  0  0  0
   -1.7868   -0.8081    5.5397 H   0  0  0  0  0  0  0  0  0  0  0  0
   -3.8051    2.4878   -0.1853 H   0  0  0  0  0  0  0  0  0  0  0  0
   -2.7905    3.1847   -1.2279 H   0  0  0  0  0  0  0  0  0  0  0  0
   -3.8435    0.3196   -1.6483 H   0  0  0  0  0  0  0  0  0  0  0  0
   -0.9969    1.2262   -2.5222 H   0  0  0  0  0  0  0  0  0  0  0  0
   -1.4367   -0.1857   -1.8787 H   0  0  0  0  0  0  0  0  0  0  0  0
  1  2  1  0  0  0  0
  1 26  1  0  0  0  0
  1 27  1  0  0  0  0
  1 28  1  0  0  0  0
  2  3  1  0  0  0  0
  2 18  1  0  0  0  0
  2 29  1  0  0  0  0
  3  4  1  0  0  0  0
  3 30  1  0  0  0  0
  4  5  2  0  0  0  0
  4  6  1  0  0  0  0
  6  7  2  0  0  0  0
  6 17  1  0  0  0  0
  7  8  1  0  0  0  0
  7 31  1  0  0  0  0
  8  9  1  0  0  0  0
  8 32  1  0  0  0  0
  9 10  1  0  0  0  0
  9 17  2  0  0  0  0
 10 11  2  0  0  0  0
 11 12  1  0  0  0  0
 11 33  1  0  0  0  0
 12 13  1  0  0  0  0
 12 16  2  0  0  0  0
 13 14  1  0  0  0  0
 13 15  1  0  0  0  0
 13 34  1  0  0  0  0
 14 15  1  0  0  0  0
 14 35  1  0  0  0  0
 14 36  1  0  0  0  0
 15 37  1  0  0  0  0
 15 38  1  0  0  0  0
 16 17  1  0  0  0  0
 18 19  2  0  0  0  0
 18 20  1  0  0  0  0
 20 21  1  0  0  0  0
 20 25  1  0  0  0  0
 21 22  1  0  0  0  0
 21 39  1  0  0  0  0
 21 40  1  0  0  0  0
 22 23  1  0  0  0  0
 22 25  1  0  0  0  0
 22 41  1  0  0  0  0
 23 24  3  0  0  0  0
 25 42  1  0  0  0  0
 25 43  1  0  0  0  0
M  END
