REMARK  Name = 
REMARK  13 active torsions:
REMARK  status: ('A' for Active; 'I' for Inactive)
REMARK    1  A    between atoms: C_2  and  C_3
REMARK    2  A    between atoms: C_7  and  N_8
REMARK    3  A    between atoms: N_8  and  C_9
REMARK    4  A    between atoms: C_16  and  O_17
REMARK    5  A    between atoms: O_17  and  C_18
REMARK    6  A    between atoms: C_18  and  C_19
REMARK    7  A    between atoms: C_19  and  C_20
REMARK    8  A    between atoms: C_20  and  C_21
REMARK    9  A    between atoms: C_21  and  N_22
REMARK   10  A    between atoms: N_22  and  C_23
REMARK   11  A    between atoms: C_23  and  C_24
REMARK   12  A    between atoms: C_24  and  S_25
REMARK   13  A    between atoms: S_25  and  C_26
REMARK                            x       y       z     vdW  Elec       q    Type
REMARK                         _______ _______ _______ _____ _____    ______ ____
ROOT
ATOM      1  C   UNL     1       3.779  -2.442   0.054  0.00  0.00    +0.000 A 
ATOM      2  N   UNL     1       4.453  -2.989  -0.928  0.00  0.00    +0.000 NA
ATOM      3  C   UNL     1       5.819  -2.941  -0.855  0.00  0.00    +0.000 A 
ATOM      4  N   UNL     1       6.533  -2.403   0.095  0.00  0.00    +0.000 NA
ATOM      5  C   UNL     1       5.842  -1.840   1.138  0.00  0.00    +0.000 A 
ATOM      6  C   UNL     1       6.546  -1.236   2.203  0.00  0.00    +0.000 A 
ATOM      7  C   UNL     1       5.866  -0.700   3.261  0.00  0.00    +0.000 A 
ATOM      8  C   UNL     1       4.459  -0.716   3.295  0.00  0.00    +0.000 A 
ATOM      9  C   UNL     1       3.748  -1.269   2.268  0.00  0.00    +0.000 A 
ATOM     10  C   UNL     1       4.429  -1.842   1.170  0.00  0.00    +0.000 A 
ENDROOT
BRANCH   1  11
ATOM     11  N   UNL     1       2.309  -2.449   0.003  0.00  0.00    +0.000 N 
ATOM     12  H   UNL     1       1.805  -3.335  -0.035  0.00  0.00    +0.000 HD
BRANCH  11  17
ATOM     13  C   UNL     1      -0.548  -0.018  -0.042  0.00  0.00    +0.000 A 
ATOM     14  C   UNL     1       0.144   1.192  -0.044  0.00  0.00    +0.000 A 
ATOM     15  C   UNL     1       1.531   1.206   0.007  0.00  0.00    +0.000 A 
ATOM     16  C   UNL     1       2.283   0.020   0.060  0.00  0.00    +0.000 A 
ATOM     17  C   UNL     1       1.568  -1.180   0.007  0.00  0.00    +0.000 A 
ATOM     18  C   UNL     1       0.182  -1.213  -0.042  0.00  0.00    +0.000 A 
BRANCH  13  20
ATOM     19  C   UNL     1      -3.174   0.014   0.054  0.00  0.00    +0.000 C 
ATOM     20  C   UNL     1      -1.987  -0.021  -0.001  0.00  0.00    +0.000 C 
ENDBRANCH  13  20
ENDBRANCH  11  17
ENDBRANCH   1  11
BRANCH   8  21
ATOM     21  O   UNL     1       3.774  -0.153   4.404  0.00  0.00    +0.000 OA
BRANCH  21  22
ATOM     22  C   UNL     1       4.508   0.423   5.474  0.00  0.00    +0.000 C 
BRANCH  22  23
ATOM     23  C   UNL     1       5.409  -0.631   6.096  0.00  0.00    +0.000 C 
BRANCH  23  24
ATOM     24  C   UNL     1       6.373  -1.157   5.045  0.00  0.00    +0.000 C 
BRANCH  24  25
ATOM     25  C   UNL     1       7.223  -0.011   4.518  0.00  0.00    +0.000 C 
BRANCH  25  26
ATOM     26  N   UNL     1       7.983   0.585   5.626  0.00  0.00    +0.000 NA
ATOM     27  H   UNL     1       7.336   0.938   6.331  0.00  0.00    +0.000 HD
BRANCH  26  28
ATOM     28  C   UNL     1       8.804   1.693   5.116  0.00  0.00    +0.000 C 
BRANCH  28  29
ATOM     29  C   UNL     1       7.903   2.747   4.494  0.00  0.00    +0.000 C 
BRANCH  29  30
ATOM     30  S   UNL     1       6.754   3.373   5.746  0.00  0.00    +0.000 S 
ATOM     31  C   UNL     1       7.690   4.108   7.110  0.00  0.00    +0.000 C 
ATOM     32  O   UNL     1       5.847   4.435   5.120  0.00  0.00    +0.000 OA
ATOM     33  O   UNL     1       5.899   2.220   6.276  0.00  0.00    +0.000 OA
ENDBRANCH  29  30
ENDBRANCH  28  29
ENDBRANCH  26  28
ENDBRANCH  25  26
ENDBRANCH  24  25
ENDBRANCH  23  24
ENDBRANCH  22  23
ENDBRANCH  21  22
ENDBRANCH   8  21
TORSDOF 12
