REMARK  Name = 
REMARK  4 active torsions:
REMARK  status: ('A' for Active; 'I' for Inactive)
REMARK    1  A    between atoms: C_1  and  C_2
REMARK    2  A    between atoms: C_5  and  C_6
REMARK    3  A    between atoms: N_8  and  C_9
REMARK    4  A    between atoms: C_13  and  C_14
REMARK                            x       y       z     vdW  Elec       q    Type
REMARK                         _______ _______ _______ _____ _____    ______ ____
ROOT
ATOM      1  C   UNL     1       2.492   0.004  -0.014  0.00  0.00    +0.000 C 
ATOM      2  C   UNL     1       0.991  -0.005   0.013  0.00  0.00    +0.000 A 
ATOM      3  C   UNL     1       0.258  -1.197   0.006  0.00  0.00    +0.000 A 
ATOM      4  C   UNL     1      -1.108  -1.202   0.001  0.00  0.00    +0.000 A 
ATOM      5  C   UNL     1      -1.799   0.010  -0.013  0.00  0.00    +0.000 A 
ATOM      6  C   UNL     1      -1.109   1.206   0.002  0.00  0.00    +0.000 A 
ATOM      7  C   UNL     1       0.275   1.184   0.005  0.00  0.00    +0.000 A 
ENDROOT
BRANCH   7   8
ATOM      8  C   UNL     1       1.033   2.501  -0.001  0.00  0.00    +0.000 A 
ATOM      9  C   UNL     1       1.905   2.759  -1.078  0.00  0.00    +0.000 A 
ATOM     10  C   UNL     1       2.611   3.934  -1.127  0.00  0.00    +0.000 A 
ATOM     11  C   UNL     1       2.420   4.839  -0.070  0.00  0.00    +0.000 A 
ATOM     12  N   UNL     1       2.957   6.061   0.171  0.00  0.00    +0.000 N 
ATOM     13  N   UNL     1       2.470   6.609   1.331  0.00  0.00    +0.000 NA
ATOM     14  C   UNL     1       1.627   5.725   1.828  0.00  0.00    +0.000 A 
ATOM     15  C   UNL     1       1.540   4.572   1.000  0.00  0.00    +0.000 A 
ATOM     16  C   UNL     1       0.827   3.371   1.047  0.00  0.00    +0.000 A 
ATOM     17  H   UNL     1       3.639   6.517  -0.435  0.00  0.00    +0.000 HD
ENDBRANCH   7   8
BRANCH   5  18
ATOM     18  C   UNL     1      -3.319   0.014  -0.045  0.00  0.00    +0.000 C 
ATOM     19  O   UNL     1      -3.957  -1.085  -0.059  0.00  0.00    +0.000 OA
ATOM     20  N   UNL     1      -4.050   1.289  -0.060  0.00  0.00    +0.000 N 
ATOM     21  H   UNL     1      -5.070   1.291  -0.081  0.00  0.00    +0.000 HD
BRANCH  20  22
ATOM     22  C   UNL     1      -3.312   2.560  -0.044  0.00  0.00    +0.000 C 
ATOM     23  C   UNL     1      -2.841   3.290  -1.303  0.00  0.00    +0.000 C 
ATOM     24  C   UNL     1      -3.311   4.090  -0.085  0.00  0.00    +0.000 C 
ENDBRANCH  20  22
ENDBRANCH   5  18
TORSDOF 3
