
 OpenBabel03132514253D

 66 71  0  0  0  0  0  0  0  0999 V2000
    1.0071   -0.0898    0.0434 C   0  0  0  0  0  0  0  0  0  0  0  0
    0.5005    1.1273    0.7998 C   0  0  0  0  0  0  0  0  0  0  0  0
    1.0071    2.3910    0.1240 C   0  0  0  0  0  0  0  0  0  0  0  0
    0.5338    2.4345   -1.2141 O   0  0  0  0  0  0  0  0  0  0  0  0
   -1.0195    1.1273    0.7998 C   0  0  0  0  0  0  0  0  0  0  0  0
   -1.4929   -0.0532    1.4312 O   0  0  0  0  0  0  0  0  0  0  0  0
    1.0071    1.0808    2.2322 C   0  0  0  0  0  0  0  0  0  0  0  0
    1.2380   -0.1463    2.8317 C   0  0  0  0  0  0  0  0  0  0  0  0
    1.4186   -0.0747    4.2332 C   0  0  0  0  0  0  0  0  0  0  0  0
    1.7095    1.0302    4.8954 C   0  0  0  0  0  0  0  0  0  0  0  0
    2.2220    0.9952    6.3260 C   0  0  0  0  0  0  0  0  0  0  0  0
    3.4030    0.3289    6.6085 C   0  0  0  0  0  0  0  0  0  0  0  0
    3.6231    0.1127    7.9894 C   0  0  0  0  0  0  0  0  0  0  0  0
    3.0035    0.7632    8.9573 C   0  0  0  0  0  0  0  0  0  0  0  0
    3.5107    0.7403   10.3900 C   0  0  0  0  0  0  0  0  0  0  0  0
    4.7743    1.2158   10.6794 N   0  0  0  0  0  0  0  0  0  0  0  0
    5.2387    1.1865   11.9978 C   0  0  0  0  0  0  0  0  0  0  0  0
    6.4865    1.5952   12.6408 N   0  0  0  0  0  0  0  0  0  0  0  0
    6.3836    1.3394   13.9121 C   0  0  0  0  0  0  0  0  0  0  0  0
    7.3935    1.5957   14.8769 O   0  0  0  0  0  0  0  0  0  0  0  0
    8.6274    2.1735   14.4768 C   0  0  0  0  0  0  0  0  0  0  0  0
    8.3921    3.3726   13.9201 C   0  0  0  0  0  0  0  0  0  0  0  0
    8.2546    3.2248   12.4794 O   0  0  0  0  0  0  0  0  0  0  0  0
    8.9945    1.9277   12.1002 C   0  0  0  0  0  0  0  0  0  0  0  0
   10.3057    2.2798   11.4290 C   0  0  0  0  0  0  0  0  0  0  0  0
   10.1575    3.4175   10.5923 O   0  0  0  0  0  0  0  0  0  0  0  0
   11.2080    2.5194   12.4200 C   0  0  0  0  0  0  0  0  0  0  0  0
   10.9014    1.6962   13.5799 O   0  0  0  0  0  0  0  0  0  0  0  0
    9.4061    1.3398   13.4794 C   0  0  0  0  0  0  0  0  0  0  0  0
    5.1349    0.7758   14.1913 N   0  0  0  0  0  0  0  0  0  0  0  0
    4.4166    0.6749   13.0174 C   0  0  0  0  0  0  0  0  0  0  0  0
    3.1469    0.2014   12.7073 C   0  0  0  0  0  0  0  0  0  0  0  0
    2.6972    0.2393   11.4066 C   0  0  0  0  0  0  0  0  0  0  0  0
    1.0650   -0.3557   11.0189 Cl  0  0  0  0  0  0  0  0  0  0  0  0
    1.8812    1.4584    8.6014 C   0  0  0  0  0  0  0  0  0  0  0  0
    1.5286    1.6031    7.2814 C   0  0  0  0  0  0  0  0  0  0  0  0
    1.5249    2.2075    4.2249 C   0  0  0  0  0  0  0  0  0  0  0  0
    1.2184    2.2173    2.8856 C   0  0  0  0  0  0  0  0  0  0  0  0
    0.6505   -0.0571   -0.9649 H   0  0  0  0  0  0  0  0  0  0  0  0
    0.6505   -0.9794    0.5192 H   0  0  0  0  0  0  0  0  0  0  0  0
    2.0771   -0.0898    0.0434 H   0  0  0  0  0  0  0  0  0  0  0  0
    0.6505    3.2478    0.6565 H   0  0  0  0  0  0  0  0  0  0  0  0
    2.0771    2.3910    0.1240 H   0  0  0  0  0  0  0  0  0  0  0  0
    0.8671    1.6337   -1.7118 H   0  0  0  0  0  0  0  0  0  0  0  0
   -1.3762    1.9842    1.3323 H   0  0  0  0  0  0  0  0  0  0  0  0
   -1.3762    1.1601   -0.2084 H   0  0  0  0  0  0  0  0  0  0  0  0
   -1.1595   -0.8540    0.9336 H   0  0  0  0  0  0  0  0  0  0  0  0
    1.2764   -1.0651    2.2845 H   0  0  0  0  0  0  0  0  0  0  0  0
    1.3120   -0.9787    4.7957 H   0  0  0  0  0  0  0  0  0  0  0  0
    4.0869    0.0068    5.8511 H   0  0  0  0  0  0  0  0  0  0  0  0
    4.3416   -0.6293    8.2688 H   0  0  0  0  0  0  0  0  0  0  0  0
    9.2218    2.2453   15.3636 H   0  0  0  0  0  0  0  0  0  0  0  0
    7.4881    3.7794   14.3229 H   0  0  0  0  0  0  0  0  0  0  0  0
    9.2083    4.0306   14.1341 H   0  0  0  0  0  0  0  0  0  0  0  0
    8.4030    1.2944   11.4726 H   0  0  0  0  0  0  0  0  0  0  0  0
   10.6369    1.4652   10.8194 H   0  0  0  0  0  0  0  0  0  0  0  0
    9.8478    4.1954   11.1392 H   0  0  0  0  0  0  0  0  0  0  0  0
   11.1592    3.5514   12.6982 H   0  0  0  0  0  0  0  0  0  0  0  0
   12.1911    2.2850   12.0687 H   0  0  0  0  0  0  0  0  0  0  0  0
    9.2330    0.2943   13.6269 H   0  0  0  0  0  0  0  0  0  0  0  0
    4.8080    0.4862   15.1131 H   0  0  0  0  0  0  0  0  0  0  0  0
    2.5193   -0.1924   13.4793 H   0  0  0  0  0  0  0  0  0  0  0  0
    1.2688    1.8960    9.3619 H   0  0  0  0  0  0  0  0  0  0  0  0
    0.6876    2.2112    7.0209 H   0  0  0  0  0  0  0  0  0  0  0  0
    1.6205    3.1344    4.7508 H   0  0  0  0  0  0  0  0  0  0  0  0
    1.1493    3.1492    2.3644 H   0  0  0  0  0  0  0  0  0  0  0  0
  1  2  1  0  0  0  0
  1 39  1  0  0  0  0
  1 40  1  0  0  0  0
  1 41  1  0  0  0  0
  2  3  1  0  0  0  0
  2  5  1  0  0  0  0
  2  7  1  0  0  0  0
  3  4  1  0  0  0  0
  3 42  1  0  0  0  0
  3 43  1  0  0  0  0
  4 44  1  0  0  0  0
  5  6  1  0  0  0  0
  5 45  1  0  0  0  0
  5 46  1  0  0  0  0
  6 47  1  0  0  0  0
  7  8  1  0  0  0  0
  7 38  2  0  0  0  0
  8  9  2  0  0  0  0
  8 48  1  0  0  0  0
  9 10  1  0  0  0  0
  9 49  1  0  0  0  0
 10 11  1  0  0  0  0
 10 37  2  0  0  0  0
 11 12  1  0  0  0  0
 11 36  2  0  0  0  0
 12 13  2  0  0  0  0
 12 50  1  0  0  0  0
 13 14  1  0  0  0  0
 13 51  1  0  0  0  0
 14 15  1  0  0  0  0
 14 35  2  0  0  0  0
 15 16  1  0  0  0  0
 15 33  2  0  0  0  0
 16 17  2  0  0  0  0
 17 18  1  0  0  0  0
 17 31  1  0  0  0  0
 18 19  2  0  0  0  0
 19 20  1  0  0  0  0
 19 30  1  0  0  0  0
 20 21  1  0  0  0  0
 21 22  1  0  0  0  0
 21 29  1  0  0  0  0
 21 52  1  0  0  0  0
 22 23  1  0  0  0  0
 22 53  1  0  0  0  0
 22 54  1  0  0  0  0
 23 24  1  0  0  0  0
 24 25  1  0  0  0  0
 24 29  1  0  0  0  0
 24 55  1  0  0  0  0
 25 26  1  0  0  0  0
 25 27  1  0  0  0  0
 25 56  1  0  0  0  0
 26 57  1  0  0  0  0
 27 28  1  0  0  0  0
 27 58  1  0  0  0  0
 27 59  1  0  0  0  0
 28 29  1  0  0  0  0
 29 60  1  0  0  0  0
 30 31  1  0  0  0  0
 30 61  1  0  0  0  0
 31 32  2  0  0  0  0
 32 33  1  0  0  0  0
 32 62  1  0  0  0  0
 33 34  1  0  0  0  0
 35 36  1  0  0  0  0
 35 63  1  0  0  0  0
 36 64  1  0  0  0  0
 37 38  1  0  0  0  0
 37 65  1  0  0  0  0
 38 66  1  0  0  0  0
M  END
