REMARK  Name = 
REMARK  11 active torsions:
REMARK  status: ('A' for Active; 'I' for Inactive)
REMARK    1  A    between atoms: C_1  and  C_2
REMARK    2  A    between atoms: C_4  and  C_5
REMARK    3  A    between atoms: C_9  and  C_11
REMARK    4  A    between atoms: C_14  and  C_15
REMARK    5  A    between atoms: C_15  and  N_16
REMARK    6  A    between atoms: N_19  and  C_20
REMARK    7  A    between atoms: C_29  and  N_30
REMARK    8  A    between atoms: C_36  and  C_37
REMARK    9  A    between atoms: C_37  and  C_38
REMARK   10  A    between atoms: C_37  and  C_39
REMARK   11  A    between atoms: C_37  and  C_40
REMARK                            x       y       z     vdW  Elec       q    Type
REMARK                         _______ _______ _______ _____ _____    ______ ____
ROOT
ATOM      1  C   UNL     1      -1.869  -2.518   0.011  0.00  0.00    +0.000 A 
ATOM      2  C   UNL     1      -2.736  -2.951  -0.925  0.00  0.00    +0.000 A 
ATOM      3  C   UNL     1      -3.186  -4.215  -0.483  0.00  0.00    +0.000 A 
ATOM      4  N   UNL     1      -4.155  -5.054  -1.202  0.00  0.00    +0.000 N 
ATOM      5  C   UNL     1      -4.553  -6.356  -0.649  0.00  0.00    +0.000 C 
ATOM      6  O   UNL     1      -4.604  -7.357  -1.431  0.00  0.00    +0.000 OA
ATOM      7  N   UNL     1      -2.617  -4.543   0.665  0.00  0.00    +0.000 NA
ATOM      8  N   UNL     1      -1.807  -3.484   0.967  0.00  0.00    +0.000 N 
ATOM      9  H   UNL     1      -4.551  -4.732  -2.085  0.00  0.00    +0.000 HD
ATOM     10  H   UNL     1      -1.227  -3.426   1.804  0.00  0.00    +0.000 HD
ENDROOT
BRANCH   1  14
ATOM     11  C   UNL     1       2.492   0.004  -0.014  0.00  0.00    +0.000 C 
ATOM     12  C   UNL     1       0.991  -0.005   0.013  0.00  0.00    +0.000 A 
ATOM     13  C   UNL     1       0.258  -1.197   0.006  0.00  0.00    +0.000 A 
ATOM     14  C   UNL     1      -1.108  -1.202   0.001  0.00  0.00    +0.000 A 
ATOM     15  C   UNL     1      -1.799   0.010  -0.013  0.00  0.00    +0.000 A 
ATOM     16  C   UNL     1      -1.109   1.206   0.002  0.00  0.00    +0.000 A 
ATOM     17  C   UNL     1       0.275   1.184   0.005  0.00  0.00    +0.000 A 
BRANCH  17  18
ATOM     18  N   UNL     1       1.008   2.458  -0.000  0.00  0.00    +0.000 N 
ATOM     19  C   UNL     1       0.272   3.730  -0.009  0.00  0.00    +0.000 C 
ATOM     20  O   UNL     1       0.906   4.832  -0.014  0.00  0.00    +0.000 OA
ATOM     21  N   UNL     1      -1.198   3.728  -0.012  0.00  0.00    +0.000 N 
ATOM     22  C   UNL     1      -1.932   2.454  -0.006  0.00  0.00    +0.000 A 
ATOM     23  C   UNL     1      -1.606   1.372   0.826  0.00  0.00    +0.000 A 
ATOM     24  C   UNL     1      -2.517   0.416   0.506  0.00  0.00    +0.000 A 
ATOM     25  O   UNL     1      -3.355   0.892  -0.450  0.00  0.00    +0.000 OA
ATOM     26  N   UNL     1      -2.965   2.204  -0.781  0.00  0.00    +0.000 NA
ATOM     27  H   UNL     1       2.028   2.459   0.002  0.00  0.00    +0.000 HD
ATOM     28  H   UNL     1      -1.709   4.611  -0.018  0.00  0.00    +0.000 HD
BRANCH  24  29
ATOM     29  C   UNL     1      -2.586  -0.972   1.122  0.00  0.00    +0.000 C 
ATOM     30  C   UNL     1      -3.935  -1.160   1.796  0.00  0.00    +0.000 C 
ATOM     31  C   UNL     1      -2.413  -2.019   0.033  0.00  0.00    +0.000 C 
ATOM     32  C   UNL     1      -1.478  -1.125   2.152  0.00  0.00    +0.000 C 
ENDBRANCH  24  29
ENDBRANCH  17  18
ENDBRANCH   1  14
BRANCH   5  33
ATOM     33  C   UNL     1      -4.902  -6.558   0.797  0.00  0.00    +0.000 A 
ATOM     34  C   UNL     1      -5.160  -7.827   1.326  0.00  0.00    +0.000 A 
ATOM     35  C   UNL     1      -5.506  -8.005   2.635  0.00  0.00    +0.000 A 
ATOM     36  C   UNL     1      -5.623  -6.894   3.471  0.00  0.00    +0.000 A 
ATOM     37  C   UNL     1      -5.368  -5.627   2.986  0.00  0.00    +0.000 A 
ATOM     38  C   UNL     1      -5.021  -5.473   1.655  0.00  0.00    +0.000 A 
BRANCH  36  39
ATOM     39  C   UNL     1      -6.033  -7.080   4.923  0.00  0.00    +0.000 C 
BRANCH  39  40
ATOM     40  N   UNL     1      -7.269  -6.349   5.181  0.00  0.00    +0.000 NA
ATOM     41  C   UNL     1      -7.706  -6.526   6.551  0.00  0.00    +0.000 C 
ATOM     42  C   UNL     1      -8.941  -5.692   6.853  0.00  0.00    +0.000 C 
ATOM     43  N   UNL     1     -10.016  -5.954   5.904  0.00  0.00    +0.000 NA
ATOM     44  C   UNL     1     -10.608  -7.261   6.223  0.00  0.00    +0.000 C 
ATOM     45  C   UNL     1      -9.587  -5.973   4.531  0.00  0.00    +0.000 C 
ATOM     46  C   UNL     1      -8.350  -6.819   4.331  0.00  0.00    +0.000 C 
ENDBRANCH  39  40
ENDBRANCH  36  39
ENDBRANCH   5  33
TORSDOF 6
