
 OpenBabel03132514253D

 44 47  0  0  0  0  0  0  0  0999 V2000
    2.5010   -0.1150    0.0020 C   0  0  0  0  0  0  0  0  0  0  0  0
    0.9970    0.0050   -0.0080 C   0  0  0  0  0  0  0  0  0  0  0  0
    0.2020   -1.1310    0.0030 C   0  0  0  0  0  0  0  0  0  0  0  0
   -1.1340   -1.1260    0.0030 N   0  0  0  0  0  0  0  0  0  0  0  0
   -1.7150    0.0690   -0.0070 C   0  0  0  0  0  0  0  0  0  0  0  0
   -1.0210    1.2690    0.0060 C   0  0  0  0  0  0  0  0  0  0  0  0
   -1.7556    2.5996    0.0252 C   0  0  0  0  0  0  0  0  0  0  0  0
   -2.6216    2.9303    1.0614 C   0  0  0  0  0  0  0  0  0  0  0  0
   -3.2996    4.1407    1.0332 C   0  0  0  0  0  0  0  0  0  0  0  0
   -3.0979    5.0659    0.0169 C   0  0  0  0  0  0  0  0  0  0  0  0
   -2.2106    4.7716   -1.0103 C   0  0  0  0  0  0  0  0  0  0  0  0
   -1.5900    3.5220   -0.9811 C   0  0  0  0  0  0  0  0  0  0  0  0
   -0.8061    3.3738   -2.1306 N   0  0  0  0  0  0  0  0  0  0  0  0
   -0.8743    4.4752   -2.9183 C   0  0  0  0  0  0  0  0  0  0  0  0
   -0.2826    4.6109   -3.9906 O   0  0  0  0  0  0  0  0  0  0  0  0
   -1.7691    5.4528   -2.2284 C   0  0  0  0  0  0  0  0  0  0  0  0
   -1.9743    6.6823   -2.7324 C   0  0  0  0  0  0  0  0  0  0  0  0
   -2.8321    7.6814   -1.9733 C   0  0  0  0  0  0  0  0  0  0  0  0
   -2.5272    8.1129   -0.7049 N   0  0  0  0  0  0  0  0  0  0  0  0
   -3.5206    8.9121   -0.2217 C   0  0  0  0  0  0  0  0  0  0  0  0
   -3.4574    9.4881    1.1507 C   0  0  0  0  0  0  0  0  0  0  0  0
   -4.4756    9.0186   -1.2023 C   0  0  0  0  0  0  0  0  0  0  0  0
   -4.0451    8.2258   -2.3165 C   0  0  0  0  0  0  0  0  0  0  0  0
   -4.7744    8.0680   -3.6267 C   0  0  0  0  0  0  0  0  0  0  0  0
    0.3580    1.2170    0.0010 C   0  0  0  0  0  0  0  0  0  0  0  0
    2.8115   -0.6343    0.8845 H   0  0  0  0  0  0  0  0  0  0  0  0
    2.8212   -0.6580   -0.8626 H   0  0  0  0  0  0  0  0  0  0  0  0
    2.9368    0.8622   -0.0088 H   0  0  0  0  0  0  0  0  0  0  0  0
    0.6944   -2.0809    0.0122 H   0  0  0  0  0  0  0  0  0  0  0  0
   -2.7841    0.1074   -0.0263 H   0  0  0  0  0  0  0  0  0  0  0  0
   -2.7649    2.2537    1.8778 H   0  0  0  0  0  0  0  0  0  0  0  0
   -3.9952    4.3671    1.8141 H   0  0  0  0  0  0  0  0  0  0  0  0
   -3.6224    5.9986    0.0253 H   0  0  0  0  0  0  0  0  0  0  0  0
   -0.2543    2.5439   -2.3480 H   0  0  0  0  0  0  0  0  0  0  0  0
   -1.5337    6.9574   -3.6679 H   0  0  0  0  0  0  0  0  0  0  0  0
   -1.6771    7.8696   -0.1963 H   0  0  0  0  0  0  0  0  0  0  0  0
   -3.4862   10.5560    1.0910 H   0  0  0  0  0  0  0  0  0  0  0  0
   -4.2924    9.1402    1.7223 H   0  0  0  0  0  0  0  0  0  0  0  0
   -2.5483    9.1817    1.6246 H   0  0  0  0  0  0  0  0  0  0  0  0
   -5.3783    9.5902   -1.1452 H   0  0  0  0  0  0  0  0  0  0  0  0
   -5.7427    7.6493   -3.4478 H   0  0  0  0  0  0  0  0  0  0  0  0
   -4.8804    9.0251   -4.0935 H   0  0  0  0  0  0  0  0  0  0  0  0
   -4.2178    7.4178   -4.2688 H   0  0  0  0  0  0  0  0  0  0  0  0
    0.9279    2.1226    0.0041 H   0  0  0  0  0  0  0  0  0  0  0  0
  1  2  1  0  0  0  0
  1 26  1  0  0  0  0
  1 27  1  0  0  0  0
  1 28  1  0  0  0  0
  2  3  1  0  0  0  0
  2 25  2  0  0  0  0
  3  4  2  0  0  0  0
  3 29  1  0  0  0  0
  4  5  1  0  0  0  0
  5  6  2  0  0  0  0
  5 30  1  0  0  0  0
  6  7  1  0  0  0  0
  6 25  1  0  0  0  0
  7  8  1  0  0  0  0
  7 12  2  0  0  0  0
  8  9  2  0  0  0  0
  8 31  1  0  0  0  0
  9 10  1  0  0  0  0
  9 32  1  0  0  0  0
 10 11  2  0  0  0  0
 10 33  1  0  0  0  0
 11 12  1  0  0  0  0
 11 16  1  0  0  0  0
 12 13  1  0  0  0  0
 13 14  1  0  0  0  0
 13 34  1  0  0  0  0
 14 15  2  0  0  0  0
 14 16  1  0  0  0  0
 16 17  2  0  0  0  0
 17 18  1  0  0  0  0
 17 35  1  0  0  0  0
 18 19  1  0  0  0  0
 18 23  2  0  0  0  0
 19 20  1  0  0  0  0
 19 36  1  0  0  0  0
 20 21  1  0  0  0  0
 20 22  2  0  0  0  0
 21 37  1  0  0  0  0
 21 38  1  0  0  0  0
 21 39  1  0  0  0  0
 22 23  1  0  0  0  0
 22 40  1  0  0  0  0
 23 24  1  0  0  0  0
 24 41  1  0  0  0  0
 24 42  1  0  0  0  0
 24 43  1  0  0  0  0
 25 44  1  0  0  0  0
M  END
