
 OpenBabel03132514253D

 58 61  0  0  0  0  0  0  0  0999 V2000
    1.0680    0.0664   -0.0311 C   0  0  0  0  0  0  0  0  0  0  0  0
    0.5947    1.1788    0.7138 O   0  0  0  0  0  0  0  0  0  0  0  0
    1.0680    1.0899    2.0497 C   0  0  0  0  0  0  0  0  0  0  0  0
    2.1059    2.1839    2.2903 C   0  0  0  0  0  0  0  0  0  0  0  0
    3.3573    1.9282    1.4785 C   0  0  0  0  0  0  0  0  0  0  0  0
    3.9284    0.6170    1.8121 N   0  0  0  0  0  0  0  0  0  0  0  0
    5.1712    0.4158    1.0531 C   0  0  0  0  0  0  0  0  0  0  0  0
    4.8706    0.4733   -0.4357 C   0  0  0  0  0  0  0  0  0  0  0  0
    4.2800    1.8305   -0.7813 C   0  0  0  0  0  0  0  0  0  0  0  0
    5.2095    2.8504   -0.4464 O   0  0  0  0  0  0  0  0  0  0  0  0
    5.6476    2.9988    0.8962 C   0  0  0  0  0  0  0  0  0  0  0  0
    5.7254    4.2654    1.4512 C   0  0  0  0  0  0  0  0  0  0  0  0
    6.4604    4.3179    2.6591 C   0  0  0  0  0  0  0  0  0  0  0  0
    6.7470    3.2683    3.4076 C   0  0  0  0  0  0  0  0  0  0  0  0
    7.2314    3.4150    4.8409 C   0  0  0  0  0  0  0  0  0  0  0  0
    6.4326    4.0663    5.7662 C   0  0  0  0  0  0  0  0  0  0  0  0
    7.1057    4.4128    6.9616 C   0  0  0  0  0  0  0  0  0  0  0  0
    6.5016    5.4114    7.8054 C   0  0  0  0  0  0  0  0  0  0  0  0
    5.1851    6.0538    7.3998 C   0  0  0  0  0  0  0  0  0  0  0  0
    4.6519    6.9349    8.1445 O   0  0  0  0  0  0  0  0  0  0  0  0
    4.5508    5.6694    6.1889 O   0  0  0  0  0  0  0  0  0  0  0  0
    7.1448    5.8012    9.0336 C   0  0  0  0  0  0  0  0  0  0  0  0
    8.7078    4.0217    8.6653 N   0  0  0  0  0  0  0  0  0  0  0  0
    8.2495    3.8843    7.3572 C   0  0  0  0  0  0  0  0  0  0  0  0
    8.9594    3.1949    6.4138 C   0  0  0  0  0  0  0  0  0  0  0  0
    8.4207    2.9300    5.1779 C   0  0  0  0  0  0  0  0  0  0  0  0
    9.3252    1.9276    4.0180 Cl  0  0  0  0  0  0  0  0  0  0  0  0
    6.5845    2.0426    2.8240 C   0  0  0  0  0  0  0  0  0  0  0  0
    5.9938    1.9205    1.5895 C   0  0  0  0  0  0  0  0  0  0  0  0
    2.9704   -0.4315    1.4661 C   0  0  0  0  0  0  0  0  0  0  0  0
    1.6910   -0.2868    2.2733 C   0  0  0  0  0  0  0  0  0  0  0  0
    0.7113    0.1334   -1.0377 H   0  0  0  0  0  0  0  0  0  0  0  0
    0.7113   -0.8388    0.4142 H   0  0  0  0  0  0  0  0  0  0  0  0
    2.1380    0.0664   -0.0311 H   0  0  0  0  0  0  0  0  0  0  0  0
    0.2566    1.2214    2.7347 H   0  0  0  0  0  0  0  0  0  0  0  0
    1.6894    3.1227    1.9902 H   0  0  0  0  0  0  0  0  0  0  0  0
    2.3602    2.2032    3.3295 H   0  0  0  0  0  0  0  0  0  0  0  0
    3.1038    1.9407    0.4391 H   0  0  0  0  0  0  0  0  0  0  0  0
    4.0773    2.6904    1.6921 H   0  0  0  0  0  0  0  0  0  0  0  0
    5.8716    1.1843    1.3055 H   0  0  0  0  0  0  0  0  0  0  0  0
    5.5870   -0.5396    1.2964 H   0  0  0  0  0  0  0  0  0  0  0  0
    5.7752    0.3269   -0.9881 H   0  0  0  0  0  0  0  0  0  0  0  0
    4.1702   -0.2952   -0.6881 H   0  0  0  0  0  0  0  0  0  0  0  0
    4.0684    1.8710   -1.8294 H   0  0  0  0  0  0  0  0  0  0  0  0
    3.3754    1.9770   -0.2289 H   0  0  0  0  0  0  0  0  0  0  0  0
    5.2709    5.1262    1.0068 H   0  0  0  0  0  0  0  0  0  0  0  0
    6.8082    5.2745    2.9891 H   0  0  0  0  0  0  0  0  0  0  0  0
    5.4001    4.2873    5.5929 H   0  0  0  0  0  0  0  0  0  0  0  0
    3.6847    6.0920    5.9220 H   0  0  0  0  0  0  0  0  0  0  0  0
    6.6960    6.5431    9.6606 H   0  0  0  0  0  0  0  0  0  0  0  0
    9.5956    3.6021    8.9414 H   0  0  0  0  0  0  0  0  0  0  0  0
    9.9489    2.8569    6.6412 H   0  0  0  0  0  0  0  0  0  0  0  0
    6.9222    1.1658    3.3360 H   0  0  0  0  0  0  0  0  0  0  0  0
    5.8110    0.9477    1.1831 H   0  0  0  0  0  0  0  0  0  0  0  0
    3.4091   -1.3816    1.6891 H   0  0  0  0  0  0  0  0  0  0  0  0
    2.7367   -0.3622    0.4242 H   0  0  0  0  0  0  0  0  0  0  0  0
    1.9238   -0.3959    3.3120 H   0  0  0  0  0  0  0  0  0  0  0  0
    0.9958   -1.0412    1.9691 H   0  0  0  0  0  0  0  0  0  0  0  0
  1  2  1  0  0  0  0
  1 32  1  0  0  0  0
  1 33  1  0  0  0  0
  1 34  1  0  0  0  0
  2  3  1  0  0  0  0
  3  4  1  0  0  0  0
  3 31  1  0  0  0  0
  3 35  1  0  0  0  0
  4  5  1  0  0  0  0
  4 36  1  0  0  0  0
  4 37  1  0  0  0  0
  5  6  1  0  0  0  0
  5 38  1  0  0  0  0
  5 39  1  0  0  0  0
  6  7  1  0  0  0  0
  6 30  1  0  0  0  0
  7  8  1  0  0  0  0
  7 40  1  0  0  0  0
  7 41  1  0  0  0  0
  8  9  1  0  0  0  0
  8 42  1  0  0  0  0
  8 43  1  0  0  0  0
  9 10  1  0  0  0  0
  9 44  1  0  0  0  0
  9 45  1  0  0  0  0
 10 11  1  0  0  0  0
 11 12  1  0  0  0  0
 11 29  2  0  0  0  0
 12 13  2  0  0  0  0
 12 46  1  0  0  0  0
 13 14  1  0  0  0  0
 13 47  1  0  0  0  0
 14 15  1  0  0  0  0
 14 28  2  0  0  0  0
 15 16  1  0  0  0  0
 15 26  2  0  0  0  0
 16 17  2  0  0  0  0
 16 48  1  0  0  0  0
 17 18  1  0  0  0  0
 17 24  1  0  0  0  0
 18 19  1  0  0  0  0
 18 22  2  0  0  0  0
 19 20  2  0  0  0  0
 19 21  1  0  0  0  0
 21 49  1  0  0  0  0
 22 23  1  0  0  0  0
 22 50  1  0  0  0  0
 23 24  1  0  0  0  0
 23 51  1  0  0  0  0
 24 25  2  0  0  0  0
 25 26  1  0  0  0  0
 25 52  1  0  0  0  0
 26 27  1  0  0  0  0
 28 29  1  0  0  0  0
 28 53  1  0  0  0  0
 29 54  1  0  0  0  0
 30 31  1  0  0  0  0
 30 55  1  0  0  0  0
 30 56  1  0  0  0  0
 31 57  1  0  0  0  0
 31 58  1  0  0  0  0
M  END
