REMARK  Name = 
REMARK  9 active torsions:
REMARK  status: ('A' for Active; 'I' for Inactive)
REMARK    1  A    between atoms: C_1  and  N_2
REMARK    2  A    between atoms: N_5  and  C_6
REMARK    3  A    between atoms: C_6  and  C_7
REMARK    4  A    between atoms: C_7  and  C_8
REMARK    5  A    between atoms: C_8  and  O_9
REMARK    6  A    between atoms: O_9  and  C_10
REMARK    7  A    between atoms: C_14  and  C_15
REMARK    8  A    between atoms: C_15  and  C_16
REMARK    9  A    between atoms: C_21  and  C_22
REMARK                            x       y       z     vdW  Elec       q    Type
REMARK                         _______ _______ _______ _____ _____    ______ ____
ROOT
ATOM      1  C   UNL     1      -6.314   0.856   2.260  0.00  0.00    +0.000 C 
ATOM      2  O   UNL     1      -7.503   0.861   1.811  0.00  0.00    +0.000 OA
ATOM      3  N   UNL     1      -6.064   1.149   3.679  0.00  0.00    +0.000 N 
ATOM      4  C   UNL     1      -4.689   1.144   4.199  0.00  0.00    +0.000 A 
ATOM      5  N   UNL     1      -3.699   1.714   3.575  0.00  0.00    +0.000 NA
ATOM      6  C   UNL     1      -2.503   1.601   4.265  0.00  0.00    +0.000 A 
ATOM      7  C   UNL     1      -2.609   0.895   5.435  0.00  0.00    +0.000 A 
ATOM      8  S   UNL     1      -4.256   0.378   5.689  0.00  0.00    +0.000 S 
ATOM      9  H   UNL     1      -6.844   1.357   4.302  0.00  0.00    +0.000 HD
ENDROOT
BRANCH   6  10
ATOM     10  C   UNL     1      -1.198   2.203   3.772  0.00  0.00    +0.000 A 
ATOM     11  C   UNL     1      -0.047   1.546   3.461  0.00  0.00    +0.000 A 
ATOM     12  N   UNL     1       0.915   2.427   2.999  0.00  0.00    +0.000 N 
ATOM     13  C   UNL     1       0.371   3.700   3.036  0.00  0.00    +0.000 A 
ATOM     14  N   UNL     1       1.029   4.807   2.700  0.00  0.00    +0.000 NA
ATOM     15  C   UNL     1       0.324   5.931   2.862  0.00  0.00    +0.000 A 
ATOM     16  C   UNL     1      -0.978   5.972   3.363  0.00  0.00    +0.000 A 
ATOM     17  C   UNL     1      -1.634   4.800   3.693  0.00  0.00    +0.000 A 
ATOM     18  C   UNL     1      -0.949   3.605   3.522  0.00  0.00    +0.000 A 
ATOM     19  H   UNL     1       1.855   2.183   2.688  0.00  0.00    +0.000 HD
ENDBRANCH   6  10
BRANCH   1  20
ATOM     20  C   UNL     1      -5.151   0.547   1.331  0.00  0.00    +0.000 C 
BRANCH  20  25
ATOM     21  C   UNL     1      -2.070   2.602   1.761  0.00  0.00    +0.000 A 
ATOM     22  C   UNL     1      -2.444   3.849   1.289  0.00  0.00    +0.000 A 
ATOM     23  C   UNL     1      -3.829   3.970   1.025  0.00  0.00    +0.000 A 
ATOM     24  C   UNL     1      -4.655   2.950   0.875  0.00  0.00    +0.000 A 
ATOM     25  C   UNL     1      -4.200   1.732   1.299  0.00  0.00    +0.000 A 
ATOM     26  C   UNL     1      -2.895   1.565   1.696  0.00  0.00    +0.000 A 
BRANCH  21  27
ATOM     27  O   UNL     1      -0.777   2.431   2.323  0.00  0.00    +0.000 OA
BRANCH  27  28
ATOM     28  C   UNL     1       0.010   1.305   1.963  0.00  0.00    +0.000 C 
BRANCH  28  29
ATOM     29  C   UNL     1      -0.727   0.030   2.341  0.00  0.00    +0.000 C 
BRANCH  29  30
ATOM     30  C   UNL     1      -2.055  -0.024   1.606  0.00  0.00    +0.000 C 
BRANCH  30  35
ATOM     31  C   UNL     1       2.438   0.000   0.038  0.00  0.00    +0.000 C 
ATOM     32  N   UNL     1       1.018  -0.002  -0.296  0.00  0.00    +0.000 NA
ATOM     33  C   UNL     1       0.352   1.166   0.243  0.00  0.00    +0.000 C 
ATOM     34  C   UNL     1      -1.108   1.220  -0.180  0.00  0.00    +0.000 C 
ATOM     35  N   UNL     1      -1.814  -0.010   0.156  0.00  0.00    +0.000 NA
ATOM     36  C   UNL     1      -1.097  -1.207  -0.196  0.00  0.00    +0.000 C 
ATOM     37  C   UNL     1       0.344  -1.164   0.258  0.00  0.00    +0.000 C 
ENDBRANCH  30  35
ENDBRANCH  29  30
ENDBRANCH  28  29
ENDBRANCH  27  28
ENDBRANCH  21  27
ENDBRANCH  20  25
ENDBRANCH   1  20
TORSDOF 8
