REMARK  Name = 
REMARK  5 active torsions:
REMARK  status: ('A' for Active; 'I' for Inactive)
REMARK    1  A    between atoms: C_1  and  C_2
REMARK    2  A    between atoms: C_2  and  C_3
REMARK    3  A    between atoms: C_2  and  C_4
REMARK    4  A    between atoms: C_10  and  C_11
REMARK    5  A    between atoms: C_15  and  C_16
REMARK                            x       y       z     vdW  Elec       q    Type
REMARK                         _______ _______ _______ _____ _____    ______ ____
ROOT
ATOM      1  C   UNL     1      -2.400  -4.053  -1.171  0.00  0.00    +0.000 A 
ATOM      2  C   UNL     1      -1.720  -4.788  -0.174  0.00  0.00    +0.000 A 
ATOM      3  N   UNL     1      -1.677  -6.074  -0.483  0.00  0.00    +0.000 NA
ATOM      4  N   UNL     1      -2.323  -6.165  -1.684  0.00  0.00    +0.000 N 
ATOM      5  C   UNL     1      -2.767  -4.950  -2.107  0.00  0.00    +0.000 A 
ATOM      6  H   UNL     1      -2.456  -7.035  -2.199  0.00  0.00    +0.000 HD
ENDROOT
BRANCH   1  13
ATOM      7  C   UNL     1      -1.090   0.793  -1.180  0.00  0.00    +0.000 A 
ATOM      8  N   UNL     1      -1.856   1.872  -1.182  0.00  0.00    +0.000 NA
ATOM      9  N   UNL     1      -3.169   1.492  -1.186  0.00  0.00    +0.000 NA
ATOM     10  C   UNL     1      -3.182   0.162  -1.189  0.00  0.00    +0.000 A 
ATOM     11  C   UNL     1      -4.273  -0.744  -1.215  0.00  0.00    +0.000 A 
ATOM     12  C   UNL     1      -4.009  -2.078  -1.217  0.00  0.00    +0.000 A 
ATOM     13  C   UNL     1      -2.664  -2.557  -1.183  0.00  0.00    +0.000 A 
ATOM     14  C   UNL     1      -1.617  -1.690  -1.162  0.00  0.00    +0.000 A 
ATOM     15  N   UNL     1      -1.888  -0.332  -1.177  0.00  0.00    +0.000 N 
BRANCH   7  17
ATOM     16  C   UNL     1       0.937  -0.069  -0.035  0.00  0.00    +0.000 C 
ATOM     17  C   UNL     1       0.430   0.793  -1.180  0.00  0.00    +0.000 C 
ATOM     18  C   UNL     1       0.937   0.233  -2.499  0.00  0.00    +0.000 C 
ENDBRANCH   7  17
ENDBRANCH   1  13
BRANCH   5  19
ATOM     19  C   UNL     1      -3.529  -4.660  -3.390  0.00  0.00    +0.000 A 
ATOM     20  C   UNL     1      -3.005  -3.792  -4.338  0.00  0.00    +0.000 A 
ATOM     21  C   UNL     1      -3.732  -3.583  -5.516  0.00  0.00    +0.000 A 
ATOM     22  F   UNL     1      -3.220  -2.748  -6.446  0.00  0.00    +0.000 F 
ATOM     23  C   UNL     1      -4.934  -4.214  -5.759  0.00  0.00    +0.000 A 
ATOM     24  C   UNL     1      -5.463  -5.088  -4.817  0.00  0.00    +0.000 A 
ATOM     25  C   UNL     1      -4.744  -5.284  -3.661  0.00  0.00    +0.000 A 
ATOM     26  F   UNL     1      -5.224  -6.131  -2.718  0.00  0.00    +0.000 F 
ENDBRANCH   5  19
TORSDOF 3
