
 OpenBabel03132514253D

 37 40  0  0  0  0  0  0  0  0999 V2000
   -2.0820    0.0010    0.0050 Cl  0  0  0  0  0  0  0  0  0  0  0  0
   -0.3450   -0.0070    0.0030 C   0  0  0  0  0  0  0  0  0  0  0  0
    0.3290   -1.2190   -0.0190 C   0  0  0  0  0  0  0  0  0  0  0  0
    1.7230   -1.1990    0.0020 C   0  0  0  0  0  0  0  0  0  0  0  0
    2.4070    0.0060    0.0170 C   0  0  0  0  0  0  0  0  0  0  0  0
    3.9265    0.0115    0.0545 C   0  0  0  0  0  0  0  0  0  0  0  0
    4.3893   -0.6778    1.2675 N   0  0  0  0  0  0  0  0  0  0  0  0
    5.2418   -1.8701    1.1555 C   0  0  0  0  0  0  0  0  0  0  0  0
    4.9261   -2.9104    1.9372 N   0  0  0  0  0  0  0  0  0  0  0  0
    5.7203   -3.9783    1.7712 C   0  0  0  0  0  0  0  0  0  0  0  0
    6.7750   -4.0177    0.9154 C   0  0  0  0  0  0  0  0  0  0  0  0
    7.0209   -2.8764    0.1888 C   0  0  0  0  0  0  0  0  0  0  0  0
    8.2153   -2.8539   -0.7511 C   0  0  0  0  0  0  0  0  0  0  0  0
    9.2332   -2.0202   -0.6841 C   0  0  0  0  0  0  0  0  0  0  0  0
   10.1014   -2.2692   -1.6535 N   0  0  0  0  0  0  0  0  0  0  0  0
    9.6494   -3.2917   -2.3781 N   0  0  0  0  0  0  0  0  0  0  0  0
   10.1156   -3.9965   -3.5076 N   0  0  0  0  0  0  0  0  0  0  0  0
    9.3815   -5.0175   -4.0008 C   0  0  0  0  0  0  0  0  0  0  0  0
    8.1982   -5.3795   -3.4388 C   0  0  0  0  0  0  0  0  0  0  0  0
    7.7043   -4.7442   -2.3528 C   0  0  0  0  0  0  0  0  0  0  0  0
    8.4125   -3.6801   -1.7910 C   0  0  0  0  0  0  0  0  0  0  0  0
    6.2584   -1.7945    0.2745 N   0  0  0  0  0  0  0  0  0  0  0  0
    1.7120    1.2100   -0.0020 C   0  0  0  0  0  0  0  0  0  0  0  0
    0.3210    1.2070   -0.0140 C   0  0  0  0  0  0  0  0  0  0  0  0
   -0.2066   -2.1448   -0.0512 H   0  0  0  0  0  0  0  0  0  0  0  0
    2.2680   -2.1198    0.0066 H   0  0  0  0  0  0  0  0  0  0  0  0
    4.3064   -0.4929   -0.8093 H   0  0  0  0  0  0  0  0  0  0  0  0
    4.2794    1.0216    0.0616 H   0  0  0  0  0  0  0  0  0  0  0  0
    4.1189   -0.3288    2.1870 H   0  0  0  0  0  0  0  0  0  0  0  0
    5.5103   -4.8541    2.3490 H   0  0  0  0  0  0  0  0  0  0  0  0
    7.3830   -4.8921    0.8121 H   0  0  0  0  0  0  0  0  0  0  0  0
    9.3435   -1.2499    0.0503 H   0  0  0  0  0  0  0  0  0  0  0  0
    9.7402   -5.5541   -4.8542 H   0  0  0  0  0  0  0  0  0  0  0  0
    7.6434   -6.1881   -3.8670 H   0  0  0  0  0  0  0  0  0  0  0  0
    6.7741   -5.0555   -1.9252 H   0  0  0  0  0  0  0  0  0  0  0  0
    2.2461    2.1372   -0.0074 H   0  0  0  0  0  0  0  0  0  0  0  0
   -0.2250    2.1270   -0.0360 H   0  0  0  0  0  0  0  0  0  0  0  0
  1  2  1  0  0  0  0
  2  3  1  0  0  0  0
  2 24  2  0  0  0  0
  3  4  2  0  0  0  0
  3 25  1  0  0  0  0
  4  5  1  0  0  0  0
  4 26  1  0  0  0  0
  5  6  1  0  0  0  0
  5 23  2  0  0  0  0
  6  7  1  0  0  0  0
  6 27  1  0  0  0  0
  6 28  1  0  0  0  0
  7  8  1  0  0  0  0
  7 29  1  0  0  0  0
  8  9  1  0  0  0  0
  8 22  2  0  0  0  0
  9 10  2  0  0  0  0
 10 11  1  0  0  0  0
 10 30  1  0  0  0  0
 11 12  2  0  0  0  0
 11 31  1  0  0  0  0
 12 13  1  0  0  0  0
 12 22  1  0  0  0  0
 13 14  1  0  0  0  0
 13 21  2  0  0  0  0
 14 15  2  0  0  0  0
 14 32  1  0  0  0  0
 15 16  1  0  0  0  0
 16 17  1  0  0  0  0
 16 21  1  0  0  0  0
 17 18  2  0  0  0  0
 18 19  1  0  0  0  0
 18 33  1  0  0  0  0
 19 20  2  0  0  0  0
 19 34  1  0  0  0  0
 20 21  1  0  0  0  0
 20 35  1  0  0  0  0
 23 24  1  0  0  0  0
 23 36  1  0  0  0  0
 24 37  1  0  0  0  0
M  END
