
 OpenBabel03132514253D

 72 76  0  0  0  0  0  0  0  0999 V2000
    1.0251   -0.0964    0.0085 C   0  0  0  0  0  0  0  0  0  0  0  0
    0.5185    0.8668   -1.0526 C   0  0  0  0  0  0  0  0  0  0  0  0
    1.0084    0.4438   -2.3724 N   0  0  0  0  0  0  0  0  0  0  0  0
    0.5184    1.3754   -3.3986 C   0  0  0  0  0  0  0  0  0  0  0  0
    1.0251    2.7759   -3.0950 C   0  0  0  0  0  0  0  0  0  0  0  0
    2.4784    0.4438   -2.3724 C   0  0  0  0  0  0  0  0  0  0  0  0
    2.9851    1.8444   -2.0688 C   0  0  0  0  0  0  0  0  0  0  0  0
    2.4951    2.2673   -0.7490 N   0  0  0  0  0  0  0  0  0  0  0  0
    3.4504    2.6083    0.3151 C   0  0  0  0  0  0  0  0  0  0  0  0
    3.0268    2.9740    1.4561 O   0  0  0  0  0  0  0  0  0  0  0  0
    4.9448    2.5235    0.0506 C   0  0  0  0  0  0  0  0  0  0  0  0
    5.5983    2.9895   -1.0633 C   0  0  0  0  0  0  0  0  0  0  0  0
    5.0930    3.7081   -2.2664 C   0  0  0  0  0  0  0  0  0  0  0  0
    6.9208    2.6931   -0.9142 N   0  0  0  0  0  0  0  0  0  0  0  0
    7.1392    2.0630    0.2872 C   0  0  0  0  0  0  0  0  0  0  0  0
    8.4805    1.5862    0.8202 C   0  0  0  0  0  0  0  0  0  0  0  0
    9.4847    2.4571    1.0221 C   0  0  0  0  0  0  0  0  0  0  0  0
    9.2976    3.9200    0.7827 C   0  0  0  0  0  0  0  0  0  0  0  0
    8.3003    4.4981    0.3474 O   0  0  0  0  0  0  0  0  0  0  0  0
   10.4486    4.5340    1.1521 N   0  0  0  0  0  0  0  0  0  0  0  0
   11.3961    3.6083    1.6029 C   0  0  0  0  0  0  0  0  0  0  0  0
   10.8540    2.3249    1.5225 C   0  0  0  0  0  0  0  0  0  0  0  0
   11.6834    1.2614    1.8546 C   0  0  0  0  0  0  0  0  0  0  0  0
   12.9807    1.5131    2.2824 C   0  0  0  0  0  0  0  0  0  0  0  0
   13.4692    2.8061    2.4058 C   0  0  0  0  0  0  0  0  0  0  0  0
   12.6685    3.8841    2.0451 C   0  0  0  0  0  0  0  0  0  0  0  0
   13.1801    5.3125    2.1363 C   0  0  0  0  0  0  0  0  0  0  0  0
   14.2731    5.7693    1.4469 C   0  0  0  0  0  0  0  0  0  0  0  0
   14.5445    7.4591    1.7835 S   0  0  0  0  0  0  0  0  0  0  0  0
   13.1702    7.4344    2.8341 C   0  0  0  0  0  0  0  0  0  0  0  0
   12.6892    8.6647    3.5861 C   0  0  0  0  0  0  0  0  0  0  0  0
   12.4589    9.8164    2.8519 C   0  0  0  0  0  0  0  0  0  0  0  0
   12.4653   11.0007    3.6261 C   0  0  0  0  0  0  0  0  0  0  0  0
   12.3337   11.0375    4.9397 C   0  0  0  0  0  0  0  0  0  0  0  0
   12.5058    9.8535    5.6015 C   0  0  0  0  0  0  0  0  0  0  0  0
   12.6374    8.6718    4.9129 C   0  0  0  0  0  0  0  0  0  0  0  0
   12.5811    6.2775    2.9288 N   0  0  0  0  0  0  0  0  0  0  0  0
    5.9261    1.9422    0.9191 C   0  0  0  0  0  0  0  0  0  0  0  0
    5.6550    1.2851    2.2489 C   0  0  0  0  0  0  0  0  0  0  0  0
    0.6685   -1.0823   -0.2052 H   0  0  0  0  0  0  0  0  0  0  0  0
    0.6685    0.2114    0.9692 H   0  0  0  0  0  0  0  0  0  0  0  0
    2.0951   -0.0964    0.0085 H   0  0  0  0  0  0  0  0  0  0  0  0
   -0.5515    0.8668   -1.0526 H   0  0  0  0  0  0  0  0  0  0  0  0
    0.8751    1.8527   -0.8388 H   0  0  0  0  0  0  0  0  0  0  0  0
    0.8751    1.0675   -4.3593 H   0  0  0  0  0  0  0  0  0  0  0  0
   -0.5516    1.3754   -3.3986 H   0  0  0  0  0  0  0  0  0  0  0  0
    2.0951    2.7759   -3.0950 H   0  0  0  0  0  0  0  0  0  0  0  0
    0.6684    3.4539   -3.8419 H   0  0  0  0  0  0  0  0  0  0  0  0
    0.6684    3.0838   -2.1343 H   0  0  0  0  0  0  0  0  0  0  0  0
    2.8351   -0.2342   -1.6254 H   0  0  0  0  0  0  0  0  0  0  0  0
    2.8351    0.1360   -3.3331 H   0  0  0  0  0  0  0  0  0  0  0  0
    4.0551    1.8444   -2.0688 H   0  0  0  0  0  0  0  0  0  0  0  0
    2.6285    2.5224   -2.8157 H   0  0  0  0  0  0  0  0  0  0  0  0
    1.4923    2.3242   -0.5715 H   0  0  0  0  0  0  0  0  0  0  0  0
    4.3682    3.1004   -2.7666 H   0  0  0  0  0  0  0  0  0  0  0  0
    4.6401    4.6301   -1.9672 H   0  0  0  0  0  0  0  0  0  0  0  0
    5.9080    3.9099   -2.9298 H   0  0  0  0  0  0  0  0  0  0  0  0
    7.6461    2.9088   -1.5982 H   0  0  0  0  0  0  0  0  0  0  0  0
    8.6268    0.5486    1.0365 H   0  0  0  0  0  0  0  0  0  0  0  0
   10.6038    5.5411    1.1073 H   0  0  0  0  0  0  0  0  0  0  0  0
   11.3256    0.2557    1.7813 H   0  0  0  0  0  0  0  0  0  0  0  0
   13.6196    0.6891    2.5230 H   0  0  0  0  0  0  0  0  0  0  0  0
   14.4587    2.9729    2.7771 H   0  0  0  0  0  0  0  0  0  0  0  0
   14.8754    5.1729    0.7938 H   0  0  0  0  0  0  0  0  0  0  0  0
   12.2914    9.8110    1.7951 H   0  0  0  0  0  0  0  0  0  0  0  0
   12.5850   11.9312    3.1116 H   0  0  0  0  0  0  0  0  0  0  0  0
   12.1048   11.9451    5.4581 H   0  0  0  0  0  0  0  0  0  0  0  0
   12.5386    9.8471    6.6709 H   0  0  0  0  0  0  0  0  0  0  0  0
   12.6986    7.7488    5.4508 H   0  0  0  0  0  0  0  0  0  0  0  0
    5.1993    1.9923    2.9099 H   0  0  0  0  0  0  0  0  0  0  0  0
    4.9971    0.4531    2.1080 H   0  0  0  0  0  0  0  0  0  0  0  0
    6.5764    0.9435    2.6723 H   0  0  0  0  0  0  0  0  0  0  0  0
  1  2  1  0  0  0  0
  1 40  1  0  0  0  0
  1 41  1  0  0  0  0
  1 42  1  0  0  0  0
  2  3  1  0  0  0  0
  2 43  1  0  0  0  0
  2 44  1  0  0  0  0
  3  4  1  0  0  0  0
  3  6  1  0  0  0  0
  4  5  1  0  0  0  0
  4 45  1  0  0  0  0
  4 46  1  0  0  0  0
  5 47  1  0  0  0  0
  5 48  1  0  0  0  0
  5 49  1  0  0  0  0
  6  7  1  0  0  0  0
  6 50  1  0  0  0  0
  6 51  1  0  0  0  0
  7  8  1  0  0  0  0
  7 52  1  0  0  0  0
  7 53  1  0  0  0  0
  8  9  1  0  0  0  0
  8 54  1  0  0  0  0
  9 10  2  0  0  0  0
  9 11  1  0  0  0  0
 11 12  2  0  0  0  0
 11 38  1  0  0  0  0
 12 13  1  0  0  0  0
 12 14  1  0  0  0  0
 13 55  1  0  0  0  0
 13 56  1  0  0  0  0
 13 57  1  0  0  0  0
 14 15  1  0  0  0  0
 14 58  1  0  0  0  0
 15 16  1  0  0  0  0
 15 38  2  0  0  0  0
 16 17  2  0  0  0  0
 16 59  1  0  0  0  0
 17 18  1  0  0  0  0
 17 22  1  0  0  0  0
 18 19  2  0  0  0  0
 18 20  1  0  0  0  0
 20 21  1  0  0  0  0
 20 60  1  0  0  0  0
 21 22  1  0  0  0  0
 21 26  2  0  0  0  0
 22 23  2  0  0  0  0
 23 24  1  0  0  0  0
 23 61  1  0  0  0  0
 24 25  2  0  0  0  0
 24 62  1  0  0  0  0
 25 26  1  0  0  0  0
 25 63  1  0  0  0  0
 26 27  1  0  0  0  0
 27 28  2  0  0  0  0
 27 37  1  0  0  0  0
 28 29  1  0  0  0  0
 28 64  1  0  0  0  0
 29 30  1  0  0  0  0
 30 31  1  0  0  0  0
 30 37  2  0  0  0  0
 31 32  1  0  0  0  0
 31 36  2  0  0  0  0
 32 33  2  0  0  0  0
 32 65  1  0  0  0  0
 33 34  1  0  0  0  0
 33 66  1  0  0  0  0
 34 35  2  0  0  0  0
 34 67  1  0  0  0  0
 35 36  1  0  0  0  0
 35 68  1  0  0  0  0
 36 69  1  0  0  0  0
 38 39  1  0  0  0  0
 39 70  1  0  0  0  0
 39 71  1  0  0  0  0
 39 72  1  0  0  0  0
M  END
