REMARK  Name = 
REMARK  4 active torsions:
REMARK  status: ('A' for Active; 'I' for Inactive)
REMARK    1  A    between atoms: N_1  and  C_2
REMARK    2  A    between atoms: C_2  and  C_3
REMARK    3  A    between atoms: C_6  and  N_7
REMARK    4  A    between atoms: C_8  and  C_9
REMARK                            x       y       z     vdW  Elec       q    Type
REMARK                         _______ _______ _______ _____ _____    ______ ____
ROOT
ATOM      1  N   UNL     1       2.085   4.523  -4.323  0.00  0.00    +0.000 N 
ATOM      2  C   UNL     1       1.888   4.112  -5.559  0.00  0.00    +0.000 A 
ATOM      3  N   UNL     1       2.409   4.971  -6.423  0.00  0.00    +0.000 NA
ATOM      4  C   UNL     1       2.963   5.974  -5.744  0.00  0.00    +0.000 A 
ATOM      5  C   UNL     1       3.651   7.155  -6.093  0.00  0.00    +0.000 A 
ATOM      6  N   UNL     1       4.091   7.979  -5.118  0.00  0.00    +0.000 NA
ATOM      7  C   UNL     1       3.893   7.696  -3.804  0.00  0.00    +0.000 A 
ATOM      8  C   UNL     1       3.235   6.582  -3.409  0.00  0.00    +0.000 A 
ATOM      9  C   UNL     1       2.753   5.687  -4.366  0.00  0.00    +0.000 A 
ENDROOT
BRANCH   2  10
ATOM     10  C   UNL     1       1.164   2.831  -5.941  0.00  0.00    +0.000 A 
ATOM     11  N   UNL     1       1.815   1.484  -6.913  0.00  0.00    +0.000 NA
ATOM     12  O   UNL     1       0.403   0.478  -6.943  0.00  0.00    +0.000 OA
ATOM     13  N   UNL     1      -0.503   1.192  -6.223  0.00  0.00    +0.000 NA
ATOM     14  C   UNL     1      -0.133   2.402  -5.692  0.00  0.00    +0.000 A 
ATOM     15  N   UNL     1      -1.068   3.209  -4.895  0.00  0.00    +0.000 N 
ATOM     16  H   UNL     1      -2.016   2.872  -4.726  0.00  0.00    +0.000 HD
ATOM     17  H   UNL     1      -0.770   4.105  -4.511  0.00  0.00    +0.000 HD
ENDBRANCH   2  10
BRANCH   1  21
ATOM     18  C   UNL     1       1.024   2.130  -1.011  0.00  0.00    +0.000 A 
ATOM     19  C   UNL     1       1.720   1.547  -2.057  0.00  0.00    +0.000 A 
ATOM     20  C   UNL     1       2.213   2.474  -3.006  0.00  0.00    +0.000 A 
ATOM     21  C   UNL     1       1.784   3.716  -3.131  0.00  0.00    +0.000 A 
ATOM     22  C   UNL     1       1.044   4.212  -2.094  0.00  0.00    +0.000 A 
ATOM     23  C   UNL     1       0.635   3.398  -1.065  0.00  0.00    +0.000 A 
BRANCH  18  24
ATOM     24  C   UNL     1       0.517   1.332   0.179  0.00  0.00    +0.000 C 
BRANCH  24  25
ATOM     25  N   UNL     1       1.007  -0.051   0.086  0.00  0.00    +0.000 NA
ATOM     26  H   UNL     1       0.667  -0.475  -0.777  0.00  0.00    +0.000 HD
ATOM     27  H   UNL     1       2.027  -0.051   0.086  0.00  0.00    +0.000 HD
ENDBRANCH  24  25
ENDBRANCH  18  24
ENDBRANCH   1  21
TORSDOF 4
