REMARK  Name = 
REMARK  12 active torsions:
REMARK  status: ('A' for Active; 'I' for Inactive)
REMARK    1  A    between atoms: C_1  and  C_2
REMARK    2  A    between atoms: C_2  and  C_3
REMARK    3  A    between atoms: C_2  and  C_4
REMARK    4  A    between atoms: C_2  and  C_5
REMARK    5  A    between atoms: N_11  and  C_12
REMARK    6  A    between atoms: C_12  and  C_13
REMARK    7  A    between atoms: C_16  and  C_17
REMARK    8  A    between atoms: C_21  and  C_23
REMARK    9  A    between atoms: C_26  and  O_27
REMARK   10  A    between atoms: O_27  and  C_28
REMARK   11  A    between atoms: C_28  and  C_29
REMARK   12  A    between atoms: C_29  and  N_30
REMARK                            x       y       z     vdW  Elec       q    Type
REMARK                         _______ _______ _______ _____ _____    ______ ____
ROOT
ATOM      1  C   UNL     1       5.404   5.335  -3.326  0.00  0.00    +0.000 A 
ATOM      2  C   UNL     1       5.168   6.358  -2.482  0.00  0.00    +0.000 A 
ATOM      3  C   UNL     1       6.393   7.051  -2.359  0.00  0.00    +0.000 A 
ATOM      4  N   UNL     1       6.593   8.250  -1.532  0.00  0.00    +0.000 N 
ATOM      5  C   UNL     1       7.914   8.893  -1.478  0.00  0.00    +0.000 C 
ATOM      6  O   UNL     1       8.087   9.929  -0.763  0.00  0.00    +0.000 OA
ATOM      7  N   UNL     1       7.335   6.477  -3.089  0.00  0.00    +0.000 NA
ATOM      8  N   UNL     1       6.714   5.418  -3.688  0.00  0.00    +0.000 N 
ATOM      9  H   UNL     1       5.816   8.636  -0.996  0.00  0.00    +0.000 HD
ATOM     10  H   UNL     1       7.174   4.770  -4.327  0.00  0.00    +0.000 HD
ENDROOT
BRANCH   1  14
ATOM     11  C   UNL     1       2.815   2.388  -5.016  0.00  0.00    +0.000 A 
ATOM     12  C   UNL     1       3.951   1.968  -4.342  0.00  0.00    +0.000 A 
ATOM     13  C   UNL     1       4.615   3.001  -3.639  0.00  0.00    +0.000 A 
ATOM     14  C   UNL     1       4.436   4.291  -3.858  0.00  0.00    +0.000 A 
ATOM     15  C   UNL     1       3.333   4.637  -4.587  0.00  0.00    +0.000 A 
ATOM     16  C   UNL     1       2.559   3.678  -5.196  0.00  0.00    +0.000 A 
BRANCH  11  17
ATOM     17  C   UNL     1       1.796   1.389  -5.539  0.00  0.00    +0.000 C 
BRANCH  17  24
ATOM     18  C   UNL     1       1.056  -0.786  -2.437  0.00  0.00    +0.000 A 
ATOM     19  C   UNL     1       1.476  -1.698  -3.353  0.00  0.00    +0.000 A 
ATOM     20  C   UNL     1       1.752  -0.935  -4.500  0.00  0.00    +0.000 A 
ATOM     21  N   UNL     1       2.233  -1.510  -5.764  0.00  0.00    +0.000 N 
ATOM     22  C   UNL     1       2.496  -0.635  -6.916  0.00  0.00    +0.000 C 
ATOM     23  O   UNL     1       2.913  -1.132  -8.009  0.00  0.00    +0.000 OA
ATOM     24  N   UNL     1       2.278   0.814  -6.803  0.00  0.00    +0.000 N 
ATOM     25  N   UNL     1       1.532   0.349  -4.319  0.00  0.00    +0.000 NA
ATOM     26  O   UNL     1       1.091   0.456  -2.985  0.00  0.00    +0.000 OA
ATOM     27  H   UNL     1       2.385  -2.516  -5.842  0.00  0.00    +0.000 HD
ATOM     28  H   UNL     1       2.461   1.421  -7.602  0.00  0.00    +0.000 HD
BRANCH  18  30
ATOM     29  C   UNL     1       1.056  -0.049  -0.067  0.00  0.00    +0.000 C 
ATOM     30  C   UNL     1       0.550  -1.101  -1.039  0.00  0.00    +0.000 C 
ATOM     31  C   UNL     1       1.056  -2.470  -0.613  0.00  0.00    +0.000 C 
ATOM     32  C   UNL     1      -0.970  -1.101  -1.039  0.00  0.00    +0.000 C 
ENDBRANCH  18  30
ENDBRANCH  17  24
ENDBRANCH  11  17
ENDBRANCH   1  14
BRANCH   5  33
ATOM     33  C   UNL     1       9.073   8.319  -2.276  0.00  0.00    +0.000 A 
ATOM     34  C   UNL     1      10.292   8.161  -1.638  0.00  0.00    +0.000 A 
ATOM     35  C   UNL     1      11.363   7.863  -2.513  0.00  0.00    +0.000 A 
ATOM     36  C   UNL     1      11.220   7.413  -3.746  0.00  0.00    +0.000 A 
ATOM     37  C   UNL     1       9.974   7.535  -4.297  0.00  0.00    +0.000 A 
ATOM     38  C   UNL     1       8.904   7.946  -3.540  0.00  0.00    +0.000 A 
BRANCH  36  39
ATOM     39  O   UNL     1      12.301   6.834  -4.462  0.00  0.00    +0.000 OA
BRANCH  39  40
ATOM     40  C   UNL     1      12.104   6.363  -5.787  0.00  0.00    +0.000 C 
BRANCH  40  41
ATOM     41  C   UNL     1      11.041   5.277  -5.785  0.00  0.00    +0.000 C 
BRANCH  41  42
ATOM     42  N   UNL     1       9.779   5.826  -5.268  0.00  0.00    +0.000 NA
ATOM     43  C   UNL     1       8.875   4.668  -5.395  0.00  0.00    +0.000 C 
ATOM     44  C   UNL     1       8.807   4.241  -6.844  0.00  0.00    +0.000 C 
ATOM     45  O   UNL     1       8.369   5.315  -7.675  0.00  0.00    +0.000 OA
ATOM     46  C   UNL     1       9.275   6.414  -7.567  0.00  0.00    +0.000 C 
ATOM     47  C   UNL     1       9.340   6.932  -6.143  0.00  0.00    +0.000 C 
ENDBRANCH  41  42
ENDBRANCH  40  41
ENDBRANCH  39  40
ENDBRANCH  36  39
ENDBRANCH   5  33
TORSDOF 9
