REMARK  Name = 
REMARK  6 active torsions:
REMARK  status: ('A' for Active; 'I' for Inactive)
REMARK    1  A    between atoms: C_3  and  C_4
REMARK    2  A    between atoms: C_9  and  C_10
REMARK    3  A    between atoms: C_13  and  O_14
REMARK    4  A    between atoms: O_14  and  C_15
REMARK    5  A    between atoms: C_15  and  C_16
REMARK    6  A    between atoms: C_16  and  N_17
REMARK                            x       y       z     vdW  Elec       q    Type
REMARK                         _______ _______ _______ _____ _____    ______ ____
ROOT
ATOM      1  C   UNL     1       2.961   0.101  -0.011  0.00  0.00    +0.000 A 
ATOM      2  C   UNL     1       3.854  -0.426  -0.994  0.00  0.00    +0.000 A 
ATOM      3  N   UNL     1       5.177  -0.223  -0.751  0.00  0.00    +0.000 NA
ATOM      4  N   UNL     1       5.143   0.476   0.446  0.00  0.00    +0.000 N 
ATOM      5  C   UNL     1       6.221   0.948   1.129  0.00  0.00    +0.000 A 
ATOM      6  C   UNL     1       5.981   1.637   2.319  0.00  0.00    +0.000 A 
ATOM      7  C   UNL     1       4.620   1.772   2.815  0.00  0.00    +0.000 A 
ATOM      8  N   UNL     1       3.575   1.334   2.086  0.00  0.00    +0.000 NA
ATOM      9  C   UNL     1       3.793   0.667   0.925  0.00  0.00    +0.000 A 
ENDROOT
BRANCH   1  12
ATOM     10  C   UNL     1      -0.701   1.126  -0.004  0.00  0.00    +0.000 A 
ATOM     11  C   UNL     1       0.677   1.216   0.007  0.00  0.00    +0.000 A 
ATOM     12  C   UNL     1       1.442   0.047  -0.003  0.00  0.00    +0.000 A 
ATOM     13  C   UNL     1       0.765  -1.166  -0.005  0.00  0.00    +0.000 A 
ATOM     14  C   UNL     1      -0.611  -1.165   0.009  0.00  0.00    +0.000 A 
ATOM     15  N   UNL     1      -1.348  -0.050  -0.003  0.00  0.00    +0.000 NA
ENDBRANCH   1  12
BRANCH   6  16
ATOM     16  C   UNL     1       7.138   2.246   3.094  0.00  0.00    +0.000 A 
ATOM     17  C   UNL     1       7.975   3.174   2.495  0.00  0.00    +0.000 A 
ATOM     18  C   UNL     1       9.183   3.394   3.199  0.00  0.00    +0.000 A 
ATOM     19  C   UNL     1       9.385   3.065   4.462  0.00  0.00    +0.000 A 
ATOM     20  C   UNL     1       8.485   2.197   5.015  0.00  0.00    +0.000 A 
ATOM     21  C   UNL     1       7.346   1.832   4.338  0.00  0.00    +0.000 A 
BRANCH  19  22
ATOM     22  O   UNL     1      10.478   3.584   5.204  0.00  0.00    +0.000 OA
BRANCH  22  23
ATOM     23  C   UNL     1      10.659   3.204   6.561  0.00  0.00    +0.000 C 
BRANCH  23  24
ATOM     24  C   UNL     1       9.439   3.613   7.369  0.00  0.00    +0.000 C 
BRANCH  24  25
ATOM     25  N   UNL     1       8.246   2.945   6.828  0.00  0.00    +0.000 NA
ATOM     26  C   UNL     1       7.879   1.796   7.675  0.00  0.00    +0.000 C 
ATOM     27  C   UNL     1       8.833   0.653   7.410  0.00  0.00    +0.000 C 
ATOM     28  O   UNL     1       8.823   0.286   6.031  0.00  0.00    +0.000 OA
ATOM     29  C   UNL     1       9.215   1.400   5.228  0.00  0.00    +0.000 C 
ATOM     30  C   UNL     1       8.257   2.563   5.402  0.00  0.00    +0.000 C 
ENDBRANCH  24  25
ENDBRANCH  23  24
ENDBRANCH  22  23
ENDBRANCH  19  22
ENDBRANCH   6  16
TORSDOF 6
