REMARK  Name = 
REMARK  8 active torsions:
REMARK  status: ('A' for Active; 'I' for Inactive)
REMARK    1  A    between atoms: C_2  and  O_3
REMARK    2  A    between atoms: C_2  and  C_4
REMARK    3  A    between atoms: C_11  and  C_12
REMARK    4  A    between atoms: C_15  and  O_16
REMARK    5  A    between atoms: O_16  and  C_17
REMARK    6  A    between atoms: C_17  and  C_18
REMARK    7  A    between atoms: C_18  and  C_19
REMARK    8  A    between atoms: C_19  and  N_20
REMARK                            x       y       z     vdW  Elec       q    Type
REMARK                         _______ _______ _______ _____ _____    ______ ____
ROOT
ATOM      1  C   UNL     1       0.657  -0.830  -5.332  0.00  0.00    +0.000 A 
ATOM      2  C   UNL     1       0.569   0.518  -5.637  0.00  0.00    +0.000 A 
ATOM      3  C   UNL     1      -0.600   0.869  -6.353  0.00  0.00    +0.000 A 
ATOM      4  C   UNL     1      -1.367   0.011  -7.000  0.00  0.00    +0.000 A 
ATOM      5  C   UNL     1      -1.185  -1.311  -6.704  0.00  0.00    +0.000 A 
ATOM      6  C   UNL     1      -0.144  -1.720  -5.906  0.00  0.00    +0.000 A 
ENDROOT
BRANCH   1  14
ATOM      7  C   UNL     1       3.051  -0.930  -0.792  0.00  0.00    +0.000 A 
ATOM      8  C   UNL     1       4.221  -1.601  -0.521  0.00  0.00    +0.000 A 
ATOM      9  N   UNL     1       4.606  -2.348  -1.602  0.00  0.00    +0.000 N 
ATOM     10  C   UNL     1       3.711  -2.136  -2.626  0.00  0.00    +0.000 A 
ATOM     11  C   UNL     1       3.738  -2.621  -3.938  0.00  0.00    +0.000 A 
ATOM     12  C   UNL     1       2.730  -2.175  -4.769  0.00  0.00    +0.000 A 
ATOM     13 CL   UNL     1       2.711  -2.711  -6.430  0.00  0.00    +0.000 Cl
ATOM     14  C   UNL     1       1.726  -1.284  -4.351  0.00  0.00    +0.000 A 
ATOM     15  C   UNL     1       1.710  -0.818  -3.046  0.00  0.00    +0.000 A 
ATOM     16  C   UNL     1       2.709  -1.249  -2.154  0.00  0.00    +0.000 A 
ATOM     17  H   UNL     1       5.421  -2.960  -1.642  0.00  0.00    +0.000 HD
BRANCH   7  19
ATOM     18  O   UNL     1       1.020   0.089   0.042  0.00  0.00    +0.000 OA
ATOM     19  C   UNL     1       2.291   0.089   0.042  0.00  0.00    +0.000 C 
BRANCH  19  20
ATOM     20  O   UNL     1       3.001   1.040   0.821  0.00  0.00    +0.000 OA
ATOM     21  H   UNL     1       4.001   1.040   0.821  0.00  0.00    +0.000 HD
ENDBRANCH  19  20
ENDBRANCH   7  19
ENDBRANCH   1  14
BRANCH   4  22
ATOM     22  O   UNL     1      -2.330   0.439  -7.952  0.00  0.00    +0.000 OA
BRANCH  22  23
ATOM     23  C   UNL     1      -3.136  -0.517  -8.626  0.00  0.00    +0.000 C 
BRANCH  23  24
ATOM     24  C   UNL     1      -2.245  -1.469  -9.407  0.00  0.00    +0.000 C 
BRANCH  24  25
ATOM     25  C   UNL     1      -1.305  -2.184  -8.450  0.00  0.00    +0.000 C 
BRANCH  25  26
ATOM     26  N   UNL     1      -2.091  -2.943  -7.467  0.00  0.00    +0.000 N 
ATOM     27  C   UNL     1      -2.083  -4.429  -7.551  0.00  0.00    +0.000 C 
ATOM     28  C   UNL     1      -2.954  -5.070  -6.487  0.00  0.00    +0.000 C 
ATOM     29  O   UNL     1      -2.687  -4.474  -5.216  0.00  0.00    +0.000 OA
ATOM     30  C   UNL     1      -3.203  -3.161  -5.245  0.00  0.00    +0.000 C 
ATOM     31  C   UNL     1      -2.733  -2.312  -6.418  0.00  0.00    +0.000 C 
ATOM     32  O   UNL     1      -2.952  -1.113  -6.369  0.00  0.00    +0.000 OA
ENDBRANCH  25  26
ENDBRANCH  24  25
ENDBRANCH  23  24
ENDBRANCH  22  23
ENDBRANCH   4  22
TORSDOF 8
