REMARK  Name = 
REMARK  7 active torsions:
REMARK  status: ('A' for Active; 'I' for Inactive)
REMARK    1  A    between atoms: C_1  and  C_2
REMARK    2  A    between atoms: C_2  and  C_3
REMARK    3  A    between atoms: C_3  and  N_4
REMARK    4  A    between atoms: C_3  and  C_28
REMARK    5  A    between atoms: C_5  and  C_7
REMARK    6  A    between atoms: N_13  and  C_14
REMARK    7  A    between atoms: C_17  and  O_18
REMARK                            x       y       z     vdW  Elec       q    Type
REMARK                         _______ _______ _______ _____ _____    ______ ____
ROOT
ATOM      1  C   UNL     1      -0.782   3.614  -3.227  0.00  0.00    +0.000 A 
ATOM      2  C   UNL     1       0.209   4.459  -2.828  0.00  0.00    +0.000 A 
ATOM      3  C   UNL     1      -0.075   5.744  -2.577  0.00  0.00    +0.000 A 
ATOM      4  C   UNL     1      -1.342   6.240  -2.717  0.00  0.00    +0.000 A 
ATOM      5  N   UNL     1      -1.551   7.591  -2.430  0.00  0.00    +0.000 NA
ATOM      6  C   UNL     1      -2.779   8.146  -2.542  0.00  0.00    +0.000 A 
ATOM      7  N   UNL     1      -2.960   9.573  -2.236  0.00  0.00    +0.000 N 
ATOM      8  C   UNL     1      -3.881   7.381  -2.945  0.00  0.00    +0.000 A 
ATOM      9  N   UNL     1      -5.155   7.768  -3.107  0.00  0.00    +0.000 NA
ATOM     10  C   UNL     1      -5.873   6.747  -3.493  0.00  0.00    +0.000 A 
ATOM     11  C   UNL     1      -5.056   5.619  -3.599  0.00  0.00    +0.000 A 
ATOM     12  N   UNL     1      -3.760   5.992  -3.251  0.00  0.00    +0.000 N 
ATOM     13  C   UNL     1      -2.421   5.397  -3.127  0.00  0.00    +0.000 A 
ATOM     14  C   UNL     1      -2.097   4.066  -3.382  0.00  0.00    +0.000 A 
ATOM     15  H   UNL     1      -2.162  10.137  -1.942  0.00  0.00    +0.000 HD
ENDROOT
BRANCH   7  16
ATOM     16  C   UNL     1      -4.290  10.187  -2.355  0.00  0.00    +0.000 C 
ATOM     17  C   UNL     1      -5.385   9.599  -1.476  0.00  0.00    +0.000 C 
ATOM     18  C   UNL     1      -5.362   8.071  -1.474  0.00  0.00    +0.000 C 
ATOM     19  C   UNL     1      -5.493   7.583  -2.917  0.00  0.00    +0.000 C 
ATOM     20  C   UNL     1      -4.391   8.150  -3.783  0.00  0.00    +0.000 C 
ATOM     21  C   UNL     1      -4.372   9.670  -3.776  0.00  0.00    +0.000 C 
BRANCH  19  22
ATOM     22  O   UNL     1      -5.401   6.161  -3.042  0.00  0.00    +0.000 OA
ATOM     23  H   UNL     1      -4.494   5.859  -2.747  0.00  0.00    +0.000 HD
ENDBRANCH  19  22
ENDBRANCH   7  16
BRANCH   1  25
ATOM     24  N   UNL     1       0.430   1.444  -2.500  0.00  0.00    +0.000 N 
ATOM     25  C   UNL     1      -0.415   2.158  -3.468  0.00  0.00    +0.000 C 
ATOM     26  O   UNL     1      -0.839   1.559  -4.506  0.00  0.00    +0.000 OA
ATOM     27  H   UNL     1       0.677   0.467  -2.662  0.00  0.00    +0.000 HD
BRANCH  24  28
ATOM     28  C   UNL     1       0.920   2.137  -1.300  0.00  0.00    +0.000 C 
BRANCH  28  29
ATOM     29  C   UNL     1       0.414   3.570  -1.300  0.00  0.00    +0.000 A 
ATOM     30  C   UNL     1      -0.955   3.833  -1.587  0.00  0.00    +0.000 A 
ATOM     31  C   UNL     1      -1.358   5.147  -1.874  0.00  0.00    +0.000 A 
ATOM     32  C   UNL     1      -0.563   6.143  -1.616  0.00  0.00    +0.000 A 
ATOM     33  C   UNL     1       0.693   5.908  -1.041  0.00  0.00    +0.000 A 
ATOM     34  C   UNL     1       1.224   4.595  -1.031  0.00  0.00    +0.000 A 
ENDBRANCH  28  29
BRANCH  28  36
ATOM     35  C   UNL     1       0.920  -0.013  -0.059  0.00  0.00    +0.000 C 
ATOM     36  C   UNL     1       0.414   1.420  -0.059  0.00  0.00    +0.000 C 
ENDBRANCH  28  36
ENDBRANCH  24  28
ENDBRANCH   1  25
TORSDOF 6
