
 OpenBabel03132514253D

 54 57  0  0  0  0  0  0  0  0999 V2000
    1.0885    0.0007    0.0465 C   0  0  0  0  0  0  0  0  0  0  0  0
    0.6152   -0.1064   -1.2880 O   0  0  0  0  0  0  0  0  0  0  0  0
    0.9582    0.8853   -2.2447 C   0  0  0  0  0  0  0  0  0  0  0  0
   -0.0053    1.2168   -3.1562 C   0  0  0  0  0  0  0  0  0  0  0  0
    0.2983    2.0884   -4.2259 C   0  0  0  0  0  0  0  0  0  0  0  0
   -0.6826    2.4401   -5.1180 N   0  0  0  0  0  0  0  0  0  0  0  0
   -0.3310    3.2457   -6.0820 C   0  0  0  0  0  0  0  0  0  0  0  0
    0.9155    3.7645   -6.3061 N   0  0  0  0  0  0  0  0  0  0  0  0
    1.8663    3.4255   -5.4694 C   0  0  0  0  0  0  0  0  0  0  0  0
    3.2261    3.9395   -5.6873 N   0  0  0  0  0  0  0  0  0  0  0  0
    3.5043    4.8205   -6.8307 C   0  0  0  0  0  0  0  0  0  0  0  0
    4.5432    4.4978   -7.6794 C   0  0  0  0  0  0  0  0  0  0  0  0
    4.9482    5.3691   -8.6824 C   0  0  0  0  0  0  0  0  0  0  0  0
    4.2874    6.5879   -8.8265 C   0  0  0  0  0  0  0  0  0  0  0  0
    3.2463    6.9092   -7.9761 C   0  0  0  0  0  0  0  0  0  0  0  0
    2.3918    8.4009   -8.1728 Cl  0  0  0  0  0  0  0  0  0  0  0  0
    2.8710    6.0264   -6.9890 C   0  0  0  0  0  0  0  0  0  0  0  0
    1.8397    6.3402   -6.1784 F   0  0  0  0  0  0  0  0  0  0  0  0
    1.6192    2.5735   -4.3555 C   0  0  0  0  0  0  0  0  0  0  0  0
    2.6016    2.2046   -3.4086 C   0  0  0  0  0  0  0  0  0  0  0  0
    2.2700    1.3814   -2.3705 C   0  0  0  0  0  0  0  0  0  0  0  0
    3.3238    0.9982   -1.3444 C   0  0  0  0  0  0  0  0  0  0  0  0
    4.4302    0.3005   -2.0153 N   0  0  0  0  0  0  0  0  0  0  0  0
    3.8885   -0.8941   -2.6757 C   0  0  0  0  0  0  0  0  0  0  0  0
    4.9949   -1.6738   -3.3526 C   0  0  0  0  0  0  0  0  0  0  0  0
    5.7278   -0.8050   -4.3725 C   0  0  0  0  0  0  0  0  0  0  0  0
    6.1860    0.4991   -3.7222 C   0  0  0  0  0  0  0  0  0  0  0  0
    5.0248    1.1818   -3.0186 C   0  0  0  0  0  0  0  0  0  0  0  0
    5.5453    2.4282   -2.3217 C   0  0  0  0  0  0  0  0  0  0  0  0
    5.0145    3.7498   -2.6858 N   0  0  0  0  0  0  0  0  0  0  0  0
    6.4395    2.3278   -1.4242 O   0  0  0  0  0  0  0  0  0  0  0  0
    0.7318   -0.8298    0.6192 H   0  0  0  0  0  0  0  0  0  0  0  0
    0.7319    0.9119    0.4794 H   0  0  0  0  0  0  0  0  0  0  0  0
    2.1585    0.0007    0.0465 H   0  0  0  0  0  0  0  0  0  0  0  0
   -0.9922    0.8151   -3.0591 H   0  0  0  0  0  0  0  0  0  0  0  0
   -1.0987    3.5312   -6.7706 H   0  0  0  0  0  0  0  0  0  0  0  0
    3.9766    3.6848   -5.0452 H   0  0  0  0  0  0  0  0  0  0  0  0
    5.0454    3.5603   -7.5629 H   0  0  0  0  0  0  0  0  0  0  0  0
    5.7553    5.1085   -9.3347 H   0  0  0  0  0  0  0  0  0  0  0  0
    4.5853    7.2726   -9.5929 H   0  0  0  0  0  0  0  0  0  0  0  0
    3.6028    2.5695   -3.5048 H   0  0  0  0  0  0  0  0  0  0  0  0
    3.6956    1.8813   -0.8681 H   0  0  0  0  0  0  0  0  0  0  0  0
    2.8886    0.3532   -0.6099 H   0  0  0  0  0  0  0  0  0  0  0  0
    3.1784   -0.5883   -3.4154 H   0  0  0  0  0  0  0  0  0  0  0  0
    3.4156   -1.5164   -1.9449 H   0  0  0  0  0  0  0  0  0  0  0  0
    4.5622   -2.5089   -3.8628 H   0  0  0  0  0  0  0  0  0  0  0  0
    5.6914   -2.0083   -2.6124 H   0  0  0  0  0  0  0  0  0  0  0  0
    6.5846   -1.3358   -4.7318 H   0  0  0  0  0  0  0  0  0  0  0  0
    5.0687   -0.5821   -5.1854 H   0  0  0  0  0  0  0  0  0  0  0  0
    6.9446    0.2774   -3.0009 H   0  0  0  0  0  0  0  0  0  0  0  0
    6.5728    1.1516   -4.4769 H   0  0  0  0  0  0  0  0  0  0  0  0
    4.2804    1.4407   -3.7423 H   0  0  0  0  0  0  0  0  0  0  0  0
    5.3638    4.5862   -2.2181 H   0  0  0  0  0  0  0  0  0  0  0  0
    4.2968    3.8304   -3.4061 H   0  0  0  0  0  0  0  0  0  0  0  0
  1  2  1  0  0  0  0
  1 32  1  0  0  0  0
  1 33  1  0  0  0  0
  1 34  1  0  0  0  0
  2  3  1  0  0  0  0
  3  4  1  0  0  0  0
  3 21  2  0  0  0  0
  4  5  2  0  0  0  0
  4 35  1  0  0  0  0
  5  6  1  0  0  0  0
  5 19  1  0  0  0  0
  6  7  2  0  0  0  0
  7  8  1  0  0  0  0
  7 36  1  0  0  0  0
  8  9  2  0  0  0  0
  9 10  1  0  0  0  0
  9 19  1  0  0  0  0
 10 11  1  0  0  0  0
 10 37  1  0  0  0  0
 11 12  1  0  0  0  0
 11 17  2  0  0  0  0
 12 13  2  0  0  0  0
 12 38  1  0  0  0  0
 13 14  1  0  0  0  0
 13 39  1  0  0  0  0
 14 15  2  0  0  0  0
 14 40  1  0  0  0  0
 15 16  1  0  0  0  0
 15 17  1  0  0  0  0
 17 18  1  0  0  0  0
 19 20  2  0  0  0  0
 20 21  1  0  0  0  0
 20 41  1  0  0  0  0
 21 22  1  0  0  0  0
 22 23  1  0  0  0  0
 22 42  1  0  0  0  0
 22 43  1  0  0  0  0
 23 24  1  0  0  0  0
 23 28  1  0  0  0  0
 24 25  1  0  0  0  0
 24 44  1  0  0  0  0
 24 45  1  0  0  0  0
 25 26  1  0  0  0  0
 25 46  1  0  0  0  0
 25 47  1  0  0  0  0
 26 27  1  0  0  0  0
 26 48  1  0  0  0  0
 26 49  1  0  0  0  0
 27 28  1  0  0  0  0
 27 50  1  0  0  0  0
 27 51  1  0  0  0  0
 28 29  1  0  0  0  0
 28 52  1  0  0  0  0
 29 30  1  0  0  0  0
 29 31  2  0  0  0  0
 30 53  1  0  0  0  0
 30 54  1  0  0  0  0
M  END
