REMARK  Name = 
REMARK  4 active torsions:
REMARK  status: ('A' for Active; 'I' for Inactive)
REMARK    1  A    between atoms: C_1  and  C_2
REMARK    2  A    between atoms: C_4  and  C_5
REMARK    3  A    between atoms: C_6  and  C_7
REMARK    4  A    between atoms: C_16  and  C_17
REMARK                            x       y       z     vdW  Elec       q    Type
REMARK                         _______ _______ _______ _____ _____    ______ ____
ROOT
ATOM      1  C   UNL     1      -1.507  -2.438   0.021  0.00  0.00    +0.000 C 
ATOM      2  C   UNL     1      -1.374  -3.317   1.029  0.00  0.00    +0.000 C 
ATOM      3  C   UNL     1      -0.468  -3.037   2.184  0.00  0.00    +0.000 C 
ATOM      4  O   UNL     1       0.274  -2.068   2.350  0.00  0.00    +0.000 OA
ATOM      5  N   UNL     1      -0.615  -4.060   3.062  0.00  0.00    +0.000 N 
ATOM      6  C   UNL     1      -1.528  -5.009   2.588  0.00  0.00    +0.000 A 
ATOM      7  C   UNL     1      -1.906  -6.171   3.219  0.00  0.00    +0.000 A 
ATOM      8  C   UNL     1      -2.797  -7.003   2.549  0.00  0.00    +0.000 A 
ATOM      9  C   UNL     1      -3.242  -6.657   1.280  0.00  0.00    +0.000 A 
ATOM     10  C   UNL     1      -2.863  -5.466   0.674  0.00  0.00    +0.000 A 
ATOM     11  C   UNL     1      -2.002  -4.603   1.340  0.00  0.00    +0.000 A 
ATOM     12  H   UNL     1      -0.123  -4.129   3.953  0.00  0.00    +0.000 HD
ENDROOT
BRANCH  10  13
ATOM     13  C   UNL     1      -3.386  -5.110  -0.708  0.00  0.00    +0.000 A 
ATOM     14  C   UNL     1      -2.495  -4.916  -1.746  0.00  0.00    +0.000 A 
ATOM     15  C   UNL     1      -2.923  -4.516  -2.968  0.00  0.00    +0.000 A 
ATOM     16  C   UNL     1      -4.281  -4.287  -3.170  0.00  0.00    +0.000 A 
ATOM     17  C   UNL     1      -5.008  -3.769  -4.295  0.00  0.00    +0.000 A 
ATOM     18  C   UNL     1      -6.295  -3.668  -3.925  0.00  0.00    +0.000 A 
ATOM     19  N   UNL     1      -6.465  -4.139  -2.591  0.00  0.00    +0.000 N 
ATOM     20  C   UNL     1      -5.186  -4.502  -2.124  0.00  0.00    +0.000 A 
ATOM     21  C   UNL     1      -4.754  -4.918  -0.872  0.00  0.00    +0.000 A 
ATOM     22  H   UNL     1      -7.342  -4.201  -2.074  0.00  0.00    +0.000 HD
ENDBRANCH  10  13
BRANCH   1  28
ATOM     23  C   UNL     1       2.549   0.571   0.010  0.00  0.00    +0.000 C 
ATOM     24  C   UNL     1       1.104   0.209  -0.007  0.00  0.00    +0.000 A 
ATOM     25  C   UNL     1      -0.023   0.993  -0.008  0.00  0.00    +0.000 A 
ATOM     26  C   UNL     1      -1.160   0.120   0.013  0.00  0.00    +0.000 A 
ATOM     27  C   UNL     1      -2.606   0.547  -0.004  0.00  0.00    +0.000 C 
ATOM     28  C   UNL     1      -0.676  -1.165   0.008  0.00  0.00    +0.000 A 
ATOM     29  N   UNL     1       0.696  -1.092  -0.011  0.00  0.00    +0.000 N 
ATOM     30  H   UNL     1       1.321  -1.898  -0.026  0.00  0.00    +0.000 HD
ENDBRANCH   1  28
TORSDOF 2
