REMARK  Name = 
REMARK  12 active torsions:
REMARK  status: ('A' for Active; 'I' for Inactive)
REMARK    1  A    between atoms: C_1  and  O_2
REMARK    2  A    between atoms: O_2  and  C_3
REMARK    3  A    between atoms: C_3  and  C_4
REMARK    4  A    between atoms: C_4  and  N_5
REMARK    5  A    between atoms: N_5  and  C_6
REMARK    6  A    between atoms: N_5  and  C_28
REMARK    7  A    between atoms: C_6  and  C_7
REMARK    8  A    between atoms: N_11  and  C_12
REMARK    9  A    between atoms: C_25  and  O_26
REMARK   10  A    between atoms: O_26  and  C_27
REMARK   11  A    between atoms: C_28  and  C_29
REMARK   12  A    between atoms: C_28  and  C_30
REMARK                            x       y       z     vdW  Elec       q    Type
REMARK                         _______ _______ _______ _____ _____    ______ ____
ROOT
ATOM      1  C   UNL     1      -1.064  -3.329   1.776  0.00  0.00    +0.000 A 
ATOM      2  C   UNL     1      -1.742  -2.144   1.776  0.00  0.00    +0.000 A 
ATOM      3  C   UNL     1      -3.156  -2.142   1.791  0.00  0.00    +0.000 A 
ATOM      4  C   UNL     1      -3.951  -0.961   1.793  0.00  0.00    +0.000 A 
ATOM      5  N   UNL     1      -3.285   0.348   1.744  0.00  0.00    +0.000 N 
ATOM      6  N   UNL     1      -5.261  -1.008   1.837  0.00  0.00    +0.000 NA
ATOM      7  C   UNL     1      -5.843  -2.247   1.857  0.00  0.00    +0.000 A 
ATOM      8  N   UNL     1      -5.233  -3.400   1.835  0.00  0.00    +0.000 NA
ATOM      9  C   UNL     1      -3.862  -3.366   1.804  0.00  0.00    +0.000 A 
ATOM     10  C   UNL     1      -3.130  -4.575   1.776  0.00  0.00    +0.000 A 
ATOM     11  C   UNL     1      -1.764  -4.551   1.777  0.00  0.00    +0.000 A 
ATOM     12  H   UNL     1      -2.267   0.402   1.710  0.00  0.00    +0.000 HD
ENDROOT
BRANCH   5  13
ATOM     13  C   UNL     1      -4.086   1.581   1.745  0.00  0.00    +0.000 A 
ATOM     14  C   UNL     1      -4.004   2.472   0.695  0.00  0.00    +0.000 A 
ATOM     15  C   UNL     1      -4.758   3.639   0.683  0.00  0.00    +0.000 A 
ATOM     16  C   UNL     1      -5.609   3.905   1.754  0.00  0.00    +0.000 A 
ATOM     17  C   UNL     1      -5.690   3.011   2.805  0.00  0.00    +0.000 A 
ATOM     18 CL   UNL     1      -6.774   3.311   4.120  0.00  0.00    +0.000 Cl
ATOM     19  C   UNL     1      -4.928   1.865   2.790  0.00  0.00    +0.000 A 
ATOM     20  F   UNL     1      -5.031   0.989   3.810  0.00  0.00    +0.000 F 
ENDBRANCH   5  13
BRANCH  11  21
ATOM     21  O   UNL     1      -1.041  -5.774   1.777  0.00  0.00    +0.000 OA
ATOM     22  C   UNL     1       0.379  -5.759   1.777  0.00  0.00    +0.000 C 
ENDBRANCH  11  21
BRANCH   1  23
ATOM     23  C   UNL     1       0.456  -3.329   1.776  0.00  0.00    +0.000 C 
BRANCH  23  24
ATOM     24  N   UNL     1       0.946  -1.968   1.515  0.00  0.00    +0.000 NA
BRANCH  24  25
ATOM     25  C   UNL     1       0.456  -1.514   0.205  0.00  0.00    +0.000 C 
ATOM     26  C   UNL     1      -1.064  -1.514   0.205  0.00  0.00    +0.000 C 
BRANCH  25  27
ATOM     27  C   UNL     1       0.963  -0.107  -0.065  0.00  0.00    +0.000 C 
ATOM     28  N   UNL     1       1.808   0.157  -1.239  0.00  0.00    +0.000 N 
ATOM     29  O   UNL     1       0.656   0.842   0.723  0.00  0.00    +0.000 OA
ATOM     30  H   UNL     1       2.148   1.101  -1.420  0.00  0.00    +0.000 HD
ATOM     31  H   UNL     1       2.054  -0.604  -1.871  0.00  0.00    +0.000 HD
ENDBRANCH  25  27
ENDBRANCH  24  25
BRANCH  24  32
ATOM     32  C   UNL     1       0.456  -1.061   2.563  0.00  0.00    +0.000 C 
BRANCH  32  33
ATOM     33  C   UNL     1       0.963   0.346   2.292  0.00  0.00    +0.000 C 
BRANCH  33  35
ATOM     34  C   UNL     1       0.963  -0.092   0.015  0.00  0.00    +0.000 C 
ATOM     35  O   UNL     1       0.489   0.785   1.027  0.00  0.00    +0.000 OA
ENDBRANCH  33  35
ENDBRANCH  32  33
ENDBRANCH  24  32
ENDBRANCH  23  24
ENDBRANCH   1  23
TORSDOF 9
