
 OpenBabel03132514253D

 39 42  0  0  0  0  0  0  0  0999 V2000
    1.0777   -0.0630    0.0001 C   0  0  0  0  0  0  0  0  0  0  0  0
    0.5710    0.0825   -1.4256 C   0  0  0  0  0  0  0  0  0  0  0  0
    1.0776   -1.0794   -2.2645 C   0  0  0  0  0  0  0  0  0  0  0  0
   -0.8990    0.0825   -1.4256 N   0  0  0  0  0  0  0  0  0  0  0  0
   -1.6699   -0.7007   -0.6990 N   0  0  0  0  0  0  0  0  0  0  0  0
   -2.9478   -0.4453   -0.9382 C   0  0  0  0  0  0  0  0  0  0  0  0
   -4.1289   -1.1482   -0.2891 C   0  0  0  0  0  0  0  0  0  0  0  0
   -5.0053   -1.8565   -1.0866 C   0  0  0  0  0  0  0  0  0  0  0  0
   -6.0258   -2.5110   -0.5550 C   0  0  0  0  0  0  0  0  0  0  0  0
   -6.2409   -2.5174    0.7498 C   0  0  0  0  0  0  0  0  0  0  0  0
   -7.3240   -3.2253    1.2654 N   0  0  0  0  0  0  0  0  0  0  0  0
   -7.5581   -3.2376    2.6383 C   0  0  0  0  0  0  0  0  0  0  0  0
   -6.6802   -2.5182    3.5249 C   0  0  0  0  0  0  0  0  0  0  0  0
   -5.6454   -1.8421    3.0274 C   0  0  0  0  0  0  0  0  0  0  0  0
   -5.4040   -1.8301    1.6076 C   0  0  0  0  0  0  0  0  0  0  0  0
   -4.3280   -1.1283    1.0839 C   0  0  0  0  0  0  0  0  0  0  0  0
   -3.0254    0.5300   -1.8423 C   0  0  0  0  0  0  0  0  0  0  0  0
   -4.0796    1.2166   -2.4804 C   0  0  0  0  0  0  0  0  0  0  0  0
   -5.4773    0.8810   -2.1727 N   0  0  0  0  0  0  0  0  0  0  0  0
   -3.7926    2.1854   -3.3768 N   0  0  0  0  0  0  0  0  0  0  0  0
   -2.5099    2.5116   -3.6857 C   0  0  0  0  0  0  0  0  0  0  0  0
   -1.4597    1.8916   -3.1027 N   0  0  0  0  0  0  0  0  0  0  0  0
   -1.6848    0.8810   -2.1660 C   0  0  0  0  0  0  0  0  0  0  0  0
    0.7210   -0.9834    0.4131 H   0  0  0  0  0  0  0  0  0  0  0  0
    0.7210    0.7549    0.5906 H   0  0  0  0  0  0  0  0  0  0  0  0
    2.1477   -0.0630    0.0001 H   0  0  0  0  0  0  0  0  0  0  0  0
    0.9276    1.0028   -1.8387 H   0  0  0  0  0  0  0  0  0  0  0  0
    0.7210   -1.9998   -1.8514 H   0  0  0  0  0  0  0  0  0  0  0  0
    0.7210   -0.9770   -3.2680 H   0  0  0  0  0  0  0  0  0  0  0  0
    2.1476   -1.0794   -2.2645 H   0  0  0  0  0  0  0  0  0  0  0  0
   -4.8581   -1.8766   -2.1462 H   0  0  0  0  0  0  0  0  0  0  0  0
   -6.6929   -3.0478   -1.1967 H   0  0  0  0  0  0  0  0  0  0  0  0
   -8.3901   -3.7814    3.0344 H   0  0  0  0  0  0  0  0  0  0  0  0
   -5.8482   -1.9743    3.1289 H   0  0  0  0  0  0  0  0  0  0  0  0
   -4.9929   -1.3074    3.6855 H   0  0  0  0  0  0  0  0  0  0  0  0
   -3.6664   -0.5837    1.7245 H   0  0  0  0  0  0  0  0  0  0  0  0
   -5.6886    0.1486   -1.4949 H   0  0  0  0  0  0  0  0  0  0  0  0
   -6.2359    1.3806   -2.6368 H   0  0  0  0  0  0  0  0  0  0  0  0
   -2.3267    3.2787   -4.4088 H   0  0  0  0  0  0  0  0  0  0  0  0
  1  2  1  0  0  0  0
  1 24  1  0  0  0  0
  1 25  1  0  0  0  0
  1 26  1  0  0  0  0
  2  3  1  0  0  0  0
  2  4  1  0  0  0  0
  2 27  1  0  0  0  0
  3 28  1  0  0  0  0
  3 29  1  0  0  0  0
  3 30  1  0  0  0  0
  4  5  1  0  0  0  0
  4 23  1  0  0  0  0
  5  6  2  0  0  0  0
  6  7  1  0  0  0  0
  6 17  1  0  0  0  0
  7  8  1  0  0  0  0
  7 16  2  0  0  0  0
  8  9  2  0  0  0  0
  8 31  1  0  0  0  0
  9 10  1  0  0  0  0
  9 32  1  0  0  0  0
 10 11  1  0  0  0  0
 10 15  2  0  0  0  0
 11 12  2  0  0  0  0
 12 13  1  0  0  0  0
 12 33  1  0  0  0  0
 13 14  2  0  0  0  0
 13 34  1  0  0  0  0
 14 15  1  0  0  0  0
 14 35  1  0  0  0  0
 15 16  1  0  0  0  0
 16 36  1  0  0  0  0
 17 18  1  0  0  0  0
 17 23  2  0  0  0  0
 18 19  1  0  0  0  0
 18 20  2  0  0  0  0
 19 37  1  0  0  0  0
 19 38  1  0  0  0  0
 20 21  1  0  0  0  0
 21 22  2  0  0  0  0
 21 39  1  0  0  0  0
 22 23  1  0  0  0  0
M  END
