
 OpenBabel03132514253D

 35 37  0  0  0  0  0  0  0  0999 V2000
    0.9381    0.0614   -0.0490 C   0  0  0  0  0  0  0  0  0  0  0  0
    0.4648    1.3265    0.3891 O   0  0  0  0  0  0  0  0  0  0  0  0
    0.8078    1.8042    1.6816 C   0  0  0  0  0  0  0  0  0  0  0  0
    1.5385    1.0995    2.4463 O   0  0  0  0  0  0  0  0  0  0  0  0
    0.3011    3.1583    2.1506 C   0  0  0  0  0  0  0  0  0  0  0  0
    1.2262    3.9414    2.8263 C   0  0  0  0  0  0  0  0  0  0  0  0
    0.8559    5.1961    3.2973 C   0  0  0  0  0  0  0  0  0  0  0  0
   -0.4444    5.5924    3.0900 C   0  0  0  0  0  0  0  0  0  0  0  0
   -1.4146    4.8063    2.4669 C   0  0  0  0  0  0  0  0  0  0  0  0
   -1.0132    3.5715    1.9737 C   0  0  0  0  0  0  0  0  0  0  0  0
   -2.6602    5.5752    2.4529 C   0  0  0  0  0  0  0  0  0  0  0  0
   -3.9167    5.3025    2.0600 C   0  0  0  0  0  0  0  0  0  0  0  0
   -4.2540    3.9356    1.4870 C   0  0  0  0  0  0  0  0  0  0  0  0
   -4.0396    2.8188    2.3027 C   0  0  0  0  0  0  0  0  0  0  0  0
   -4.2869    1.5233    1.8360 C   0  0  0  0  0  0  0  0  0  0  0  0
   -4.0328    0.0340    2.9876 Br  0  0  0  0  0  0  0  0  0  0  0  0
   -4.7460    1.2904    0.5528 C   0  0  0  0  0  0  0  0  0  0  0  0
   -5.0447    0.0142    0.1839 O   0  0  0  0  0  0  0  0  0  0  0  0
   -4.8960    2.3994   -0.2701 C   0  0  0  0  0  0  0  0  0  0  0  0
   -5.4826    2.1160   -2.0597 Br  0  0  0  0  0  0  0  0  0  0  0  0
   -4.6625    3.6939    0.1766 C   0  0  0  0  0  0  0  0  0  0  0  0
   -2.3158    6.8851    3.0837 C   0  0  0  0  0  0  0  0  0  0  0  0
   -3.0519    7.8549    3.2733 O   0  0  0  0  0  0  0  0  0  0  0  0
   -1.0093    6.8234    3.4410 N   0  0  0  0  0  0  0  0  0  0  0  0
    0.5814   -0.1293   -1.0396 H   0  0  0  0  0  0  0  0  0  0  0  0
    0.5814   -0.7011    0.6115 H   0  0  0  0  0  0  0  0  0  0  0  0
    2.0081    0.0614   -0.0490 H   0  0  0  0  0  0  0  0  0  0  0  0
    2.2212    3.5808    2.9844 H   0  0  0  0  0  0  0  0  0  0  0  0
    1.5559    5.8290    3.8017 H   0  0  0  0  0  0  0  0  0  0  0  0
   -1.7113    2.9431    1.4613 H   0  0  0  0  0  0  0  0  0  0  0  0
   -4.6792    6.0476    2.1506 H   0  0  0  0  0  0  0  0  0  0  0  0
   -3.6801    2.9582    3.3008 H   0  0  0  0  0  0  0  0  0  0  0  0
   -4.9113   -0.7372    0.8301 H   0  0  0  0  0  0  0  0  0  0  0  0
   -4.7980    4.5164   -0.4943 H   0  0  0  0  0  0  0  0  0  0  0  0
   -0.5035    7.5773    3.9059 H   0  0  0  0  0  0  0  0  0  0  0  0
  1  2  1  0  0  0  0
  1 25  1  0  0  0  0
  1 26  1  0  0  0  0
  1 27  1  0  0  0  0
  2  3  1  0  0  0  0
  3  4  2  0  0  0  0
  3  5  1  0  0  0  0
  5  6  1  0  0  0  0
  5 10  2  0  0  0  0
  6  7  2  0  0  0  0
  6 28  1  0  0  0  0
  7  8  1  0  0  0  0
  7 29  1  0  0  0  0
  8  9  2  0  0  0  0
  8 24  1  0  0  0  0
  9 10  1  0  0  0  0
  9 11  1  0  0  0  0
 10 30  1  0  0  0  0
 11 12  2  0  0  0  0
 11 22  1  0  0  0  0
 12 13  1  0  0  0  0
 12 31  1  0  0  0  0
 13 14  1  0  0  0  0
 13 21  2  0  0  0  0
 14 15  2  0  0  0  0
 14 32  1  0  0  0  0
 15 16  1  0  0  0  0
 15 17  1  0  0  0  0
 17 18  1  0  0  0  0
 17 19  2  0  0  0  0
 18 33  1  0  0  0  0
 19 20  1  0  0  0  0
 19 21  1  0  0  0  0
 21 34  1  0  0  0  0
 22 23  2  0  0  0  0
 22 24  1  0  0  0  0
 24 35  1  0  0  0  0
M  END
