REMARK  Name = 
REMARK  5 active torsions:
REMARK  status: ('A' for Active; 'I' for Inactive)
REMARK    1  A    between atoms: C_1  and  C_2
REMARK    2  A    between atoms: C_5  and  C_6
REMARK    3  A    between atoms: C_7  and  C_8
REMARK    4  A    between atoms: C_8  and  N_9
REMARK    5  A    between atoms: C_11  and  C_12
REMARK                            x       y       z     vdW  Elec       q    Type
REMARK                         _______ _______ _______ _____ _____    ______ ____
ROOT
ATOM      1  N   UNL     1      -0.714   3.082  -1.186  0.00  0.00    +0.000 N 
ATOM      2  C   UNL     1      -0.256   3.927  -2.087  0.00  0.00    +0.000 A 
ATOM      3  C   UNL     1      -1.199   4.220  -2.970  0.00  0.00    +0.000 A 
ATOM      4  C   UNL     1      -2.306   3.552  -2.648  0.00  0.00    +0.000 A 
ATOM      5  C   UNL     1      -3.604   3.453  -3.191  0.00  0.00    +0.000 A 
ATOM      6  C   UNL     1      -4.514   2.654  -2.592  0.00  0.00    +0.000 A 
ATOM      7  C   UNL     1      -4.211   1.946  -1.472  0.00  0.00    +0.000 A 
ATOM      8  C   UNL     1      -2.983   1.997  -0.911  0.00  0.00    +0.000 A 
ATOM      9  C   UNL     1      -1.994   2.803  -1.479  0.00  0.00    +0.000 A 
ENDROOT
BRANCH   3  10
ATOM     10  C   UNL     1      -1.044   5.161  -4.153  0.00  0.00    +0.000 A 
ATOM     11  C   UNL     1      -1.929   6.231  -4.242  0.00  0.00    +0.000 A 
ATOM     12  C   UNL     1      -1.528   7.316  -5.053  0.00  0.00    +0.000 A 
ATOM     13  N   UNL     1      -0.800   6.996  -6.197  0.00  0.00    +0.000 NA
ATOM     14  C   UNL     1      -0.142   5.856  -6.221  0.00  0.00    +0.000 A 
ATOM     15  N   UNL     1       0.632   5.489  -7.416  0.00  0.00    +0.000 N 
ATOM     16  N   UNL     1      -0.172   4.990  -5.123  0.00  0.00    +0.000 NA
ATOM     17  H   UNL     1       0.657   6.116  -8.220  0.00  0.00    +0.000 HD
ATOM     18  H   UNL     1       1.143   4.607  -7.441  0.00  0.00    +0.000 HD
ENDBRANCH   3  10
BRANCH   1  19
ATOM     19  C   UNL     1      -0.008   2.594   0.008  0.00  0.00    +0.000 C 
BRANCH  19  26
ATOM     20  C   UNL     1      -2.566   0.509  -0.004  0.00  0.00    +0.000 C 
ATOM     21  C   UNL     1      -1.118   0.209   0.008  0.00  0.00    +0.000 A 
ATOM     22  N   UNL     1      -0.738  -1.036  -0.004  0.00  0.00    +0.000 NA
ATOM     23  O   UNL     1       0.686  -1.021   0.004  0.00  0.00    +0.000 OA
ATOM     24  C   UNL     1       1.086   0.271  -0.007  0.00  0.00    +0.000 A 
ATOM     25  C   UNL     1       2.541   0.505  -0.001  0.00  0.00    +0.000 C 
ATOM     26  C   UNL     1       0.005   1.074   0.003  0.00  0.00    +0.000 A 
ENDBRANCH  19  26
ENDBRANCH   1  19
TORSDOF 3
