
 OpenBabel03132514253D

 47 49  0  0  0  0  0  0  0  0999 V2000
    1.0785    0.0397    0.0475 C   0  0  0  0  0  0  0  0  0  0  0  0
    0.6052   -1.2895    0.2082 O   0  0  0  0  0  0  0  0  0  0  0  0
    0.9482   -2.2853   -0.7441 C   0  0  0  0  0  0  0  0  0  0  0  0
    0.0675   -3.2622   -1.1170 C   0  0  0  0  0  0  0  0  0  0  0  0
    0.4920   -4.3214   -1.9501 C   0  0  0  0  0  0  0  0  0  0  0  0
   -0.4060   -5.2804   -2.3445 N   0  0  0  0  0  0  0  0  0  0  0  0
    0.0554   -6.2300   -3.1107 C   0  0  0  0  0  0  0  0  0  0  0  0
    1.3431   -6.3790   -3.5500 N   0  0  0  0  0  0  0  0  0  0  0  0
    2.2155   -5.4773   -3.1691 C   0  0  0  0  0  0  0  0  0  0  0  0
    3.6153   -5.6127   -3.5969 N   0  0  0  0  0  0  0  0  0  0  0  0
    4.0199   -6.7471   -4.4398 C   0  0  0  0  0  0  0  0  0  0  0  0
    5.0758   -7.5834   -4.1414 C   0  0  0  0  0  0  0  0  0  0  0  0
    5.5179   -8.5348   -5.0517 C   0  0  0  0  0  0  0  0  0  0  0  0
    4.8771   -8.6391   -6.2851 C   0  0  0  0  0  0  0  0  0  0  0  0
    3.8188   -7.8012   -6.5821 C   0  0  0  0  0  0  0  0  0  0  0  0
    2.9892   -7.9504   -8.0933 Cl  0  0  0  0  0  0  0  0  0  0  0  0
    3.4066   -6.8655   -5.6605 C   0  0  0  0  0  0  0  0  0  0  0  0
    2.3591   -6.0675   -5.9517 F   0  0  0  0  0  0  0  0  0  0  0  0
    1.8456   -4.3707   -2.3529 C   0  0  0  0  0  0  0  0  0  0  0  0
    2.7406   -3.3566   -1.9423 C   0  0  0  0  0  0  0  0  0  0  0  0
    2.2932   -2.3316   -1.1585 C   0  0  0  0  0  0  0  0  0  0  0  0
    3.2533   -1.2337   -0.7308 C   0  0  0  0  0  0  0  0  0  0  0  0
    4.3561   -1.8213    0.0434 N   0  0  0  0  0  0  0  0  0  0  0  0
    5.2847   -0.7594    0.4571 C   0  0  0  0  0  0  0  0  0  0  0  0
    3.8157   -2.4913    1.2350 C   0  0  0  0  0  0  0  0  0  0  0  0
    3.0767   -1.4785    2.0944 C   0  0  0  0  0  0  0  0  0  0  0  0
    1.6476   -1.6643    2.3844 N   0  0  0  0  0  0  0  0  0  0  0  0
    3.6944   -0.4711    2.5622 O   0  0  0  0  0  0  0  0  0  0  0  0
    0.7219    0.6453    0.8543 H   0  0  0  0  0  0  0  0  0  0  0  0
    0.7219    0.4356   -0.8803 H   0  0  0  0  0  0  0  0  0  0  0  0
    2.1485    0.0397    0.0475 H   0  0  0  0  0  0  0  0  0  0  0  0
   -0.9463   -3.2246   -0.7768 H   0  0  0  0  0  0  0  0  0  0  0  0
   -0.6474   -6.9711   -3.4297 H   0  0  0  0  0  0  0  0  0  0  0  0
    4.3059   -4.9195   -3.3090 H   0  0  0  0  0  0  0  0  0  0  0  0
    5.5626   -7.4976   -3.1924 H   0  0  0  0  0  0  0  0  0  0  0  0
    6.3381   -9.1779   -4.8097 H   0  0  0  0  0  0  0  0  0  0  0  0
    5.2035   -9.3655   -6.9998 H   0  0  0  0  0  0  0  0  0  0  0  0
    3.7663   -3.3920   -2.2449 H   0  0  0  0  0  0  0  0  0  0  0  0
    3.6467   -0.7459   -1.5981 H   0  0  0  0  0  0  0  0  0  0  0  0
    2.7331   -0.5207   -0.1258 H   0  0  0  0  0  0  0  0  0  0  0  0
    4.7645   -0.0465    1.0621 H   0  0  0  0  0  0  0  0  0  0  0  0
    6.0874   -1.1872    1.0207 H   0  0  0  0  0  0  0  0  0  0  0  0
    5.6780   -0.2717   -0.4102 H   0  0  0  0  0  0  0  0  0  0  0  0
    3.1398   -3.2642    0.9339 H   0  0  0  0  0  0  0  0  0  0  0  0
    4.6184   -2.9191    1.7986 H   0  0  0  0  0  0  0  0  0  0  0  0
    1.1517   -0.9846    2.9611 H   0  0  0  0  0  0  0  0  0  0  0  0
    1.1519   -2.4728    2.0090 H   0  0  0  0  0  0  0  0  0  0  0  0
  1  2  1  0  0  0  0
  1 29  1  0  0  0  0
  1 30  1  0  0  0  0
  1 31  1  0  0  0  0
  2  3  1  0  0  0  0
  3  4  1  0  0  0  0
  3 21  2  0  0  0  0
  4  5  2  0  0  0  0
  4 32  1  0  0  0  0
  5  6  1  0  0  0  0
  5 19  1  0  0  0  0
  6  7  2  0  0  0  0
  7  8  1  0  0  0  0
  7 33  1  0  0  0  0
  8  9  2  0  0  0  0
  9 10  1  0  0  0  0
  9 19  1  0  0  0  0
 10 11  1  0  0  0  0
 10 34  1  0  0  0  0
 11 12  1  0  0  0  0
 11 17  2  0  0  0  0
 12 13  2  0  0  0  0
 12 35  1  0  0  0  0
 13 14  1  0  0  0  0
 13 36  1  0  0  0  0
 14 15  2  0  0  0  0
 14 37  1  0  0  0  0
 15 16  1  0  0  0  0
 15 17  1  0  0  0  0
 17 18  1  0  0  0  0
 19 20  2  0  0  0  0
 20 21  1  0  0  0  0
 20 38  1  0  0  0  0
 21 22  1  0  0  0  0
 22 23  1  0  0  0  0
 22 39  1  0  0  0  0
 22 40  1  0  0  0  0
 23 24  1  0  0  0  0
 23 25  1  0  0  0  0
 24 41  1  0  0  0  0
 24 42  1  0  0  0  0
 24 43  1  0  0  0  0
 25 26  1  0  0  0  0
 25 44  1  0  0  0  0
 25 45  1  0  0  0  0
 26 27  1  0  0  0  0
 26 28  2  0  0  0  0
 27 46  1  0  0  0  0
 27 47  1  0  0  0  0
M  END
