REMARK  Name = 
REMARK  10 active torsions:
REMARK  status: ('A' for Active; 'I' for Inactive)
REMARK    1  A    between atoms: C_1  and  O_2
REMARK    2  A    between atoms: O_2  and  C_3
REMARK    3  A    between atoms: N_6  and  C_7
REMARK    4  A    between atoms: C_7  and  C_8
REMARK    5  A    between atoms: C_8  and  C_9
REMARK    6  A    between atoms: C_9  and  O_10
REMARK    7  A    between atoms: O_10  and  C_11
REMARK    8  A    between atoms: C_14  and  C_15
REMARK    9  A    between atoms: C_18  and  C_19
REMARK   10  A    between atoms: C_19  and  O_21
REMARK                            x       y       z     vdW  Elec       q    Type
REMARK                         _______ _______ _______ _____ _____    ______ ____
ROOT
ATOM      1  C   UNL     1       5.648   2.999   0.896  0.00  0.00    +0.000 A 
ATOM      2  C   UNL     1       5.725   4.265   1.451  0.00  0.00    +0.000 A 
ATOM      3  C   UNL     1       6.460   4.318   2.659  0.00  0.00    +0.000 A 
ATOM      4  C   UNL     1       6.747   3.268   3.408  0.00  0.00    +0.000 A 
ATOM      5  C   UNL     1       6.585   2.043   2.824  0.00  0.00    +0.000 A 
ATOM      6  C   UNL     1       5.994   1.921   1.589  0.00  0.00    +0.000 A 
ENDROOT
BRANCH   4   7
ATOM      7  C   UNL     1       7.231   3.415   4.841  0.00  0.00    +0.000 A 
ATOM      8  C   UNL     1       6.433   4.066   5.766  0.00  0.00    +0.000 A 
ATOM      9  C   UNL     1       7.106   4.413   6.962  0.00  0.00    +0.000 A 
ATOM     10  C   UNL     1       6.502   5.411   7.805  0.00  0.00    +0.000 A 
ATOM     11  C   UNL     1       7.145   5.801   9.034  0.00  0.00    +0.000 A 
ATOM     12  N   UNL     1       8.708   4.022   8.665  0.00  0.00    +0.000 N 
ATOM     13  C   UNL     1       8.249   3.884   7.357  0.00  0.00    +0.000 A 
ATOM     14  C   UNL     1       8.959   3.195   6.414  0.00  0.00    +0.000 A 
ATOM     15  C   UNL     1       8.421   2.930   5.178  0.00  0.00    +0.000 A 
ATOM     16 CL   UNL     1       9.325   1.928   4.018  0.00  0.00    +0.000 Cl
ATOM     17  H   UNL     1       9.596   3.602   8.941  0.00  0.00    +0.000 HD
BRANCH  10  18
ATOM     18  C   UNL     1       5.185   6.054   7.400  0.00  0.00    +0.000 C 
ATOM     19  O   UNL     1       4.652   6.935   8.145  0.00  0.00    +0.000 OA
BRANCH  18  20
ATOM     20  O   UNL     1       4.551   5.669   6.189  0.00  0.00    +0.000 OA
ATOM     21  H   UNL     1       3.685   6.092   5.922  0.00  0.00    +0.000 HD
ENDBRANCH  18  20
ENDBRANCH  10  18
ENDBRANCH   4   7
BRANCH   1  22
ATOM     22  O   UNL     1       5.210   2.850  -0.446  0.00  0.00    +0.000 OA
BRANCH  22  23
ATOM     23  C   UNL     1       4.280   1.831  -0.781  0.00  0.00    +0.000 C 
BRANCH  23  24
ATOM     24  C   UNL     1       4.871   0.473  -0.436  0.00  0.00    +0.000 C 
BRANCH  24  25
ATOM     25  C   UNL     1       5.171   0.416   1.053  0.00  0.00    +0.000 C 
BRANCH  25  29
ATOM     26  C   UNL     1       1.068   1.090   2.050  0.00  0.00    +0.000 C 
ATOM     27  C   UNL     1       2.106   2.184   2.290  0.00  0.00    +0.000 C 
ATOM     28  C   UNL     1       3.357   1.928   1.478  0.00  0.00    +0.000 C 
ATOM     29  N   UNL     1       3.928   0.617   1.812  0.00  0.00    +0.000 NA
ATOM     30  C   UNL     1       2.970  -0.431   1.466  0.00  0.00    +0.000 C 
ATOM     31  C   UNL     1       1.691  -0.287   2.273  0.00  0.00    +0.000 C 
BRANCH  26  33
ATOM     32  C   UNL     1       1.068   0.066  -0.031  0.00  0.00    +0.000 C 
ATOM     33  O   UNL     1       0.595   1.179   0.714  0.00  0.00    +0.000 OA
ENDBRANCH  26  33
ENDBRANCH  25  29
ENDBRANCH  24  25
ENDBRANCH  23  24
ENDBRANCH  22  23
ENDBRANCH   1  22
TORSDOF 9
