REMARK  Name = 
REMARK  11 active torsions:
REMARK  status: ('A' for Active; 'I' for Inactive)
REMARK    1  A    between atoms: C_1  and  C_2
REMARK    2  A    between atoms: C_2  and  C_3
REMARK    3  A    between atoms: C_2  and  N_4
REMARK    4  A    between atoms: N_4  and  S_5
REMARK    5  A    between atoms: S_5  and  C_6
REMARK    6  A    between atoms: N_8  and  C_9
REMARK    7  A    between atoms: C_12  and  C_13
REMARK    8  A    between atoms: C_16  and  C_17
REMARK    9  A    between atoms: C_21  and  O_22
REMARK   10  A    between atoms: O_22  and  C_23
REMARK   11  A    between atoms: C_27  and  O_28
REMARK                            x       y       z     vdW  Elec       q    Type
REMARK                         _______ _______ _______ _____ _____    ______ ____
ROOT
ATOM      1  C   UNL     1      -4.241 -11.779  -6.543  0.00  0.00    +0.000 A 
ATOM      2  N   UNL     1      -4.660 -12.701  -5.605  0.00  0.00    +0.000 NA
ATOM      3  C   UNL     1      -5.137 -13.947  -6.025  0.00  0.00    +0.000 A 
ATOM      4  N   UNL     1      -5.645 -15.125  -5.324  0.00  0.00    +0.000 NA
ATOM      5  C   UNL     1      -5.956 -16.018  -6.218  0.00  0.00    +0.000 A 
ATOM      6  N   UNL     1      -5.694 -15.528  -7.501  0.00  0.00    +0.000 N 
ATOM      7  C   UNL     1      -5.187 -14.249  -7.397  0.00  0.00    +0.000 A 
ATOM      8  C   UNL     1      -4.762 -13.307  -8.327  0.00  0.00    +0.000 A 
ATOM      9  C   UNL     1      -4.299 -12.082  -7.903  0.00  0.00    +0.000 A 
ATOM     10 CL   UNL     1      -3.769 -10.876  -9.100  0.00  0.00    +0.000 Cl
ATOM     11  H   UNL     1      -5.852 -16.035  -8.372  0.00  0.00    +0.000 HD
ENDROOT
BRANCH   1  15
ATOM     12  C   UNL     1      -2.712  -8.175  -4.835  0.00  0.00    +0.000 A 
ATOM     13  C   UNL     1      -2.208  -9.386  -4.393  0.00  0.00    +0.000 A 
ATOM     14  C   UNL     1      -2.617 -10.496  -5.170  0.00  0.00    +0.000 A 
ATOM     15  C   UNL     1      -3.644 -10.491  -6.000  0.00  0.00    +0.000 A 
ATOM     16  C   UNL     1      -4.140  -9.265  -6.346  0.00  0.00    +0.000 A 
ATOM     17  C   UNL     1      -3.697  -8.122  -5.724  0.00  0.00    +0.000 A 
BRANCH  12  21
ATOM     18  C   UNL     1      -1.340  -4.508  -3.129  0.00  0.00    +0.000 A 
ATOM     19  C   UNL     1      -0.417  -5.347  -3.732  0.00  0.00    +0.000 A 
ATOM     20  C   UNL     1      -1.000  -6.417  -4.452  0.00  0.00    +0.000 A 
ATOM     21  C   UNL     1      -2.245  -6.831  -4.300  0.00  0.00    +0.000 A 
ATOM     22  C   UNL     1      -3.091  -5.987  -3.635  0.00  0.00    +0.000 A 
ATOM     23  C   UNL     1      -2.617  -4.854  -3.018  0.00  0.00    +0.000 A 
BRANCH  18  27
ATOM     24  S   UNL     1      -1.510  -2.924  -1.026  0.00  0.00    +0.000 S 
ATOM     25  C   UNL     1      -0.906  -4.188   0.121  0.00  0.00    +0.000 C 
ATOM     26  O   UNL     1      -3.040  -2.924  -1.026  0.00  0.00    +0.000 OA
ATOM     27  N   UNL     1      -0.985  -3.239  -2.478  0.00  0.00    +0.000 NA
BRANCH  24  28
ATOM     28  N   UNL     1      -0.923  -1.344  -0.519  0.00  0.00    +0.000 NA
ATOM     29  H   UNL     1      -1.263  -1.140   0.420  0.00  0.00    +0.000 HD
BRANCH  28  31
ATOM     30  C   UNL     1       1.054   0.021  -0.082  0.00  0.00    +0.000 C 
ATOM     31  C   UNL     1       0.547  -1.344  -0.519  0.00  0.00    +0.000 C 
ATOM     32  C   UNL     1       1.054  -2.405   0.444  0.00  0.00    +0.000 C 
ENDBRANCH  28  31
ENDBRANCH  24  28
ENDBRANCH  18  27
ENDBRANCH  12  21
ENDBRANCH   1  15
BRANCH   5  33
ATOM     33  O   UNL     1      -6.486 -17.304  -5.931  0.00  0.00    +0.000 OA
BRANCH  33  34
ATOM     34  C   UNL     1      -6.712 -17.695  -4.585  0.00  0.00    +0.000 C 
ATOM     35  C   UNL     1      -7.587 -16.833  -4.042  0.00  0.00    +0.000 C 
ATOM     36  O   UNL     1      -6.871 -15.700  -3.476  0.00  0.00    +0.000 OA
ATOM     37  C   UNL     1      -5.438 -16.187  -3.190  0.00  0.00    +0.000 C 
ATOM     38  C   UNL     1      -5.268 -16.390  -1.699  0.00  0.00    +0.000 C 
ATOM     39  C   UNL     1      -5.759 -17.626  -1.407  0.00  0.00    +0.000 C 
ATOM     40  O   UNL     1      -5.557 -18.519  -2.538  0.00  0.00    +0.000 OA
ATOM     41  C   UNL     1      -5.427 -17.624  -3.784  0.00  0.00    +0.000 C 
BRANCH  38  42
ATOM     42  O   UNL     1      -5.957 -15.386  -0.969  0.00  0.00    +0.000 OA
ATOM     43  H   UNL     1      -6.931 -15.416  -1.197  0.00  0.00    +0.000 HD
ENDBRANCH  38  42
ENDBRANCH  33  34
ENDBRANCH   5  33
TORSDOF 8
