REMARK  Name = 
REMARK  5 active torsions:
REMARK  status: ('A' for Active; 'I' for Inactive)
REMARK    1  A    between atoms: C_1  and  C_2
REMARK    2  A    between atoms: C_2  and  C_3
REMARK    3  A    between atoms: C_10  and  C_11
REMARK    4  A    between atoms: N_17  and  C_18
REMARK    5  A    between atoms: C_18  and  C_19
REMARK                            x       y       z     vdW  Elec       q    Type
REMARK                         _______ _______ _______ _____ _____    ______ ____
ROOT
ATOM      1  C   UNL     1       0.925  -1.100   2.152  0.00  0.00    +0.000 A 
ATOM      2  N   UNL     1       1.088   0.100   2.751  0.00  0.00    +0.000 NA
ATOM      3  C   UNL     1       1.541   0.202   4.028  0.00  0.00    +0.000 A 
ATOM      4  C   UNL     1       1.839  -0.891   4.765  0.00  0.00    +0.000 A 
ATOM      5  C   UNL     1       1.693  -2.163   4.208  0.00  0.00    +0.000 A 
ATOM      6  C   UNL     1       1.225  -2.277   2.869  0.00  0.00    +0.000 A 
ATOM      7  N   UNL     1       1.182  -3.581   2.599  0.00  0.00    +0.000 NA
ATOM      8  C   UNL     1       1.586  -4.249   3.669  0.00  0.00    +0.000 A 
ATOM      9  N   UNL     1       1.897  -3.417   4.642  0.00  0.00    +0.000 N 
ENDROOT
BRANCH   8  10
ATOM     10  C   UNL     1       1.678  -5.763   3.762  0.00  0.00    +0.000 A 
ATOM     11  N   UNL     1       2.659  -6.910   2.810  0.00  0.00    +0.000 NA
ATOM     12  O   UNL     1       2.165  -8.381   3.582  0.00  0.00    +0.000 OA
ATOM     13  N   UNL     1       1.282  -7.955   4.526  0.00  0.00    +0.000 NA
ATOM     14  C   UNL     1       1.020  -6.613   4.641  0.00  0.00    +0.000 A 
ATOM     15  N   UNL     1       0.084  -6.098   5.650  0.00  0.00    +0.000 N 
ATOM     16  H   UNL     1      -0.388  -6.743   6.285  0.00  0.00    +0.000 HD
ATOM     17  H   UNL     1      -0.095  -5.096   5.716  0.00  0.00    +0.000 HD
ENDBRANCH   8  10
BRANCH   1  19
ATOM     18  C   UNL     1       0.925   0.018  -0.064  0.00  0.00    +0.000 C 
ATOM     19  C   UNL     1       0.419  -1.181   0.721  0.00  0.00    +0.000 C 
ENDBRANCH   1  19
BRANCH   9  20
ATOM     20  C   UNL     1       2.385  -3.797   5.976  0.00  0.00    +0.000 C 
ATOM     21  C   UNL     1       1.347  -4.667   6.666  0.00  0.00    +0.000 C 
ENDBRANCH   9  20
TORSDOF 3
