REMARK  Name = 
REMARK  5 active torsions:
REMARK  status: ('A' for Active; 'I' for Inactive)
REMARK    1  A    between atoms: C_1  and  C_2
REMARK    2  A    between atoms: C_6  and  C_7
REMARK    3  A    between atoms: C_17  and  C_18
REMARK    4  A    between atoms: C_20  and  C_21
REMARK    5  A    between atoms: C_23  and  C_24
REMARK                            x       y       z     vdW  Elec       q    Type
REMARK                         _______ _______ _______ _____ _____    ______ ____
ROOT
ATOM      1  C   UNL     1      -1.756   2.600   0.025  0.00  0.00    +0.000 A 
ATOM      2  C   UNL     1      -2.622   2.930   1.061  0.00  0.00    +0.000 A 
ATOM      3  C   UNL     1      -3.300   4.141   1.033  0.00  0.00    +0.000 A 
ATOM      4  C   UNL     1      -3.098   5.066   0.017  0.00  0.00    +0.000 A 
ATOM      5  C   UNL     1      -2.211   4.772  -1.010  0.00  0.00    +0.000 A 
ATOM      6  C   UNL     1      -1.590   3.522  -0.981  0.00  0.00    +0.000 A 
ATOM      7  N   UNL     1      -0.806   3.374  -2.131  0.00  0.00    +0.000 N 
ATOM      8  C   UNL     1      -0.874   4.475  -2.918  0.00  0.00    +0.000 C 
ATOM      9  O   UNL     1      -0.283   4.611  -3.991  0.00  0.00    +0.000 OA
ATOM     10  C   UNL     1      -1.769   5.453  -2.228  0.00  0.00    +0.000 C 
ATOM     11  C   UNL     1      -1.974   6.682  -2.732  0.00  0.00    +0.000 C 
ATOM     12  H   UNL     1      -0.254   2.544  -2.348  0.00  0.00    +0.000 HD
ENDROOT
BRANCH  11  13
ATOM     13  C   UNL     1      -2.832   7.681  -1.973  0.00  0.00    +0.000 A 
ATOM     14  N   UNL     1      -2.527   8.113  -0.705  0.00  0.00    +0.000 N 
ATOM     15  C   UNL     1      -3.521   8.912  -0.222  0.00  0.00    +0.000 A 
ATOM     16  C   UNL     1      -3.457   9.488   1.151  0.00  0.00    +0.000 C 
ATOM     17  C   UNL     1      -4.476   9.019  -1.202  0.00  0.00    +0.000 A 
ATOM     18  C   UNL     1      -4.045   8.226  -2.317  0.00  0.00    +0.000 A 
ATOM     19  C   UNL     1      -4.774   8.068  -3.627  0.00  0.00    +0.000 C 
ATOM     20  H   UNL     1      -1.677   7.870  -0.196  0.00  0.00    +0.000 HD
ENDBRANCH  11  13
BRANCH   1  26
ATOM     21  C   UNL     1       2.501  -0.115   0.002  0.00  0.00    +0.000 C 
ATOM     22  C   UNL     1       0.997   0.005  -0.008  0.00  0.00    +0.000 A 
ATOM     23  C   UNL     1       0.202  -1.131   0.003  0.00  0.00    +0.000 A 
ATOM     24  N   UNL     1      -1.134  -1.126   0.003  0.00  0.00    +0.000 NA
ATOM     25  C   UNL     1      -1.715   0.069  -0.007  0.00  0.00    +0.000 A 
ATOM     26  C   UNL     1      -1.021   1.269   0.006  0.00  0.00    +0.000 A 
ATOM     27  C   UNL     1       0.358   1.217   0.001  0.00  0.00    +0.000 A 
ENDBRANCH   1  26
TORSDOF 2
