
 OpenBabel03132514253D

 69 73  0  0  0  0  0  0  0  0999 V2000
    0.9266   -0.0648   -0.0202 C   0  0  0  0  0  0  0  0  0  0  0  0
    0.4199   -1.2869   -0.7686 C   0  0  0  0  0  0  0  0  0  0  0  0
    0.9099   -2.5047   -0.1070 N   0  0  0  0  0  0  0  0  0  0  0  0
    0.4199   -3.6866   -0.8309 C   0  0  0  0  0  0  0  0  0  0  0  0
    0.9265   -3.6494   -2.2635 C   0  0  0  0  0  0  0  0  0  0  0  0
    2.3799   -2.5047   -0.1070 C   0  0  0  0  0  0  0  0  0  0  0  0
    2.8866   -2.4675   -1.5396 C   0  0  0  0  0  0  0  0  0  0  0  0
    2.3966   -1.2497   -2.2012 N   0  0  0  0  0  0  0  0  0  0  0  0
    3.3518   -0.2680   -2.7346 C   0  0  0  0  0  0  0  0  0  0  0  0
    2.9282    0.7849   -3.3066 O   0  0  0  0  0  0  0  0  0  0  0  0
    4.8462   -0.5120   -2.6020 C   0  0  0  0  0  0  0  0  0  0  0  0
    5.5002   -1.6929   -2.8520 C   0  0  0  0  0  0  0  0  0  0  0  0
    4.9954   -3.0094   -3.3330 C   0  0  0  0  0  0  0  0  0  0  0  0
    6.8228   -1.4905   -2.5893 N   0  0  0  0  0  0  0  0  0  0  0  0
    7.0407   -0.1924   -2.1948 C   0  0  0  0  0  0  0  0  0  0  0  0
    8.3818    0.4209   -1.8265 C   0  0  0  0  0  0  0  0  0  0  0  0
    9.3706    0.4455   -2.7371 C   0  0  0  0  0  0  0  0  0  0  0  0
    9.1552   -0.0653   -4.1245 C   0  0  0  0  0  0  0  0  0  0  0  0
    8.1451   -0.5940   -4.5922 O   0  0  0  0  0  0  0  0  0  0  0  0
   10.2964    0.1713   -4.8173 N   0  0  0  0  0  0  0  0  0  0  0  0
   11.2631    0.7815   -4.0105 C   0  0  0  0  0  0  0  0  0  0  0  0
   12.5324    1.1528   -4.3872 C   0  0  0  0  0  0  0  0  0  0  0  0
   13.3547    1.7045   -3.4113 C   0  0  0  0  0  0  0  0  0  0  0  0
   12.8898    1.8327   -2.1101 C   0  0  0  0  0  0  0  0  0  0  0  0
   13.8206    2.3826   -1.0416 C   0  0  0  0  0  0  0  0  0  0  0  0
   14.2974    3.6126   -1.0688 N   0  0  0  0  0  0  0  0  0  0  0  0
   15.0192    3.7668    0.0877 N   0  0  0  0  0  0  0  0  0  0  0  0
   15.0062    2.6381    0.8411 C   0  0  0  0  0  0  0  0  0  0  0  0
   15.6108    2.3392    2.0733 C   0  0  0  0  0  0  0  0  0  0  0  0
   15.4026    1.0823    2.5813 C   0  0  0  0  0  0  0  0  0  0  0  0
   14.6129    0.1537    1.8725 C   0  0  0  0  0  0  0  0  0  0  0  0
   14.0113    0.4212    0.6630 C   0  0  0  0  0  0  0  0  0  0  0  0
   14.2235    1.6988    0.1389 C   0  0  0  0  0  0  0  0  0  0  0  0
   11.5953    1.4713   -1.7594 C   0  0  0  0  0  0  0  0  0  0  0  0
   10.7446    0.9505   -2.7260 C   0  0  0  0  0  0  0  0  0  0  0  0
    5.8272    0.4503   -2.1936 C   0  0  0  0  0  0  0  0  0  0  0  0
    5.5556    1.8793   -1.7963 C   0  0  0  0  0  0  0  0  0  0  0  0
    0.5699   -0.0910    0.9883 H   0  0  0  0  0  0  0  0  0  0  0  0
    0.5699    0.8216   -0.5018 H   0  0  0  0  0  0  0  0  0  0  0  0
    1.9966   -0.0648   -0.0202 H   0  0  0  0  0  0  0  0  0  0  0  0
   -0.6501   -1.2869   -0.7686 H   0  0  0  0  0  0  0  0  0  0  0  0
    0.7766   -1.2607   -1.7771 H   0  0  0  0  0  0  0  0  0  0  0  0
    0.7765   -4.5730   -0.3493 H   0  0  0  0  0  0  0  0  0  0  0  0
   -0.6501   -3.6866   -0.8309 H   0  0  0  0  0  0  0  0  0  0  0  0
    1.9965   -3.6494   -2.2635 H   0  0  0  0  0  0  0  0  0  0  0  0
    0.5699   -4.5097   -2.7903 H   0  0  0  0  0  0  0  0  0  0  0  0
    0.5699   -2.7630   -2.7450 H   0  0  0  0  0  0  0  0  0  0  0  0
    2.7365   -1.6444    0.4199 H   0  0  0  0  0  0  0  0  0  0  0  0
    2.7365   -3.3911    0.3746 H   0  0  0  0  0  0  0  0  0  0  0  0
    3.9566   -2.4675   -1.5396 H   0  0  0  0  0  0  0  0  0  0  0  0
    2.5299   -3.3278   -2.0665 H   0  0  0  0  0  0  0  0  0  0  0  0
    1.3937   -1.0860   -2.2902 H   0  0  0  0  0  0  0  0  0  0  0  0
    4.2710   -3.3876   -2.6422 H   0  0  0  0  0  0  0  0  0  0  0  0
    4.5419   -2.8879   -4.2945 H   0  0  0  0  0  0  0  0  0  0  0  0
    5.8107   -3.6984   -3.4077 H   0  0  0  0  0  0  0  0  0  0  0  0
    7.5483   -2.2024   -2.6737 H   0  0  0  0  0  0  0  0  0  0  0  0
    8.5378    0.8298   -0.8500 H   0  0  0  0  0  0  0  0  0  0  0  0
   10.4326   -0.0650   -5.8002 H   0  0  0  0  0  0  0  0  0  0  0  0
   12.8741    1.0221   -5.3927 H   0  0  0  0  0  0  0  0  0  0  0  0
   14.3428    2.0292   -3.6626 H   0  0  0  0  0  0  0  0  0  0  0  0
   15.5057    4.6244    0.3492 H   0  0  0  0  0  0  0  0  0  0  0  0
   16.2073    3.0600    2.5925 H   0  0  0  0  0  0  0  0  0  0  0  0
   15.8404    0.8058    3.5176 H   0  0  0  0  0  0  0  0  0  0  0  0
   14.4727   -0.8170    2.3001 H   0  0  0  0  0  0  0  0  0  0  0  0
   13.4157   -0.3075    0.1539 H   0  0  0  0  0  0  0  0  0  0  0  0
   11.2559    1.5931   -0.7520 H   0  0  0  0  0  0  0  0  0  0  0  0
    5.0993    2.3963   -2.6144 H   0  0  0  0  0  0  0  0  0  0  0  0
    4.8980    1.8960   -0.9524 H   0  0  0  0  0  0  0  0  0  0  0  0
    6.4769    2.3595   -1.5402 H   0  0  0  0  0  0  0  0  0  0  0  0
  1  2  1  0  0  0  0
  1 38  1  0  0  0  0
  1 39  1  0  0  0  0
  1 40  1  0  0  0  0
  2  3  1  0  0  0  0
  2 41  1  0  0  0  0
  2 42  1  0  0  0  0
  3  4  1  0  0  0  0
  3  6  1  0  0  0  0
  4  5  1  0  0  0  0
  4 43  1  0  0  0  0
  4 44  1  0  0  0  0
  5 45  1  0  0  0  0
  5 46  1  0  0  0  0
  5 47  1  0  0  0  0
  6  7  1  0  0  0  0
  6 48  1  0  0  0  0
  6 49  1  0  0  0  0
  7  8  1  0  0  0  0
  7 50  1  0  0  0  0
  7 51  1  0  0  0  0
  8  9  1  0  0  0  0
  8 52  1  0  0  0  0
  9 10  2  0  0  0  0
  9 11  1  0  0  0  0
 11 12  2  0  0  0  0
 11 36  1  0  0  0  0
 12 13  1  0  0  0  0
 12 14  1  0  0  0  0
 13 53  1  0  0  0  0
 13 54  1  0  0  0  0
 13 55  1  0  0  0  0
 14 15  1  0  0  0  0
 14 56  1  0  0  0  0
 15 16  1  0  0  0  0
 15 36  2  0  0  0  0
 16 17  2  0  0  0  0
 16 57  1  0  0  0  0
 17 18  1  0  0  0  0
 17 35  1  0  0  0  0
 18 19  2  0  0  0  0
 18 20  1  0  0  0  0
 20 21  1  0  0  0  0
 20 58  1  0  0  0  0
 21 22  1  0  0  0  0
 21 35  2  0  0  0  0
 22 23  2  0  0  0  0
 22 59  1  0  0  0  0
 23 24  1  0  0  0  0
 23 60  1  0  0  0  0
 24 25  1  0  0  0  0
 24 34  2  0  0  0  0
 25 26  2  0  0  0  0
 25 33  1  0  0  0  0
 26 27  1  0  0  0  0
 27 28  1  0  0  0  0
 27 61  1  0  0  0  0
 28 29  1  0  0  0  0
 28 33  2  0  0  0  0
 29 30  2  0  0  0  0
 29 62  1  0  0  0  0
 30 31  1  0  0  0  0
 30 63  1  0  0  0  0
 31 32  2  0  0  0  0
 31 64  1  0  0  0  0
 32 33  1  0  0  0  0
 32 65  1  0  0  0  0
 34 35  1  0  0  0  0
 34 66  1  0  0  0  0
 36 37  1  0  0  0  0
 37 67  1  0  0  0  0
 37 68  1  0  0  0  0
 37 69  1  0  0  0  0
M  END
