
 OpenBabel03132514253D

 52 56  0  0  0  0  0  0  0  0999 V2000
    1.0396    0.0608   -0.0688 C   0  0  0  0  0  0  0  0  0  0  0  0
    0.5329   -1.2872   -0.5551 C   0  0  0  0  0  0  0  0  0  0  0  0
    1.0229   -2.3463    0.3389 N   0  0  0  0  0  0  0  0  0  0  0  0
    0.0676   -3.2002    1.0595 C   0  0  0  0  0  0  0  0  0  0  0  0
    0.4912   -4.1158    1.8324 O   0  0  0  0  0  0  0  0  0  0  0  0
   -1.4268   -2.9879    0.8804 C   0  0  0  0  0  0  0  0  0  0  0  0
   -2.3764   -2.9564    1.8677 C   0  0  0  0  0  0  0  0  0  0  0  0
   -3.6024   -2.7668    1.3088 N   0  0  0  0  0  0  0  0  0  0  0  0
   -3.5044   -2.6463   -0.0613 C   0  0  0  0  0  0  0  0  0  0  0  0
   -4.3903   -2.4459   -1.0354 N   0  0  0  0  0  0  0  0  0  0  0  0
   -3.9993   -2.3596   -2.2987 C   0  0  0  0  0  0  0  0  0  0  0  0
   -2.6423   -2.4976   -2.6388 C   0  0  0  0  0  0  0  0  0  0  0  0
   -2.1948   -2.4242   -4.0896 C   0  0  0  0  0  0  0  0  0  0  0  0
   -1.5699   -3.3759   -4.7525 N   0  0  0  0  0  0  0  0  0  0  0  0
   -1.3171   -2.9876   -5.9938 N   0  0  0  0  0  0  0  0  0  0  0  0
   -0.6326   -3.7876   -7.0196 C   0  0  0  0  0  0  0  0  0  0  0  0
   -1.7864   -1.7516   -6.1576 C   0  0  0  0  0  0  0  0  0  0  0  0
   -1.8184   -0.8305   -7.2255 C   0  0  0  0  0  0  0  0  0  0  0  0
   -2.3937    0.3776   -7.0413 C   0  0  0  0  0  0  0  0  0  0  0  0
   -2.4400    1.5332   -8.3944 Cl  0  0  0  0  0  0  0  0  0  0  0  0
   -2.9380    0.7320   -5.8475 C   0  0  0  0  0  0  0  0  0  0  0  0
   -2.9411   -0.1109   -4.7907 C   0  0  0  0  0  0  0  0  0  0  0  0
   -3.4921    0.2639   -3.6396 F   0  0  0  0  0  0  0  0  0  0  0  0
   -2.3637   -1.3763   -4.9121 C   0  0  0  0  0  0  0  0  0  0  0  0
   -1.7567   -2.6941   -1.6631 N   0  0  0  0  0  0  0  0  0  0  0  0
   -2.1425   -2.7757   -0.3921 C   0  0  0  0  0  0  0  0  0  0  0  0
   -0.9871   -1.2872   -0.5551 C   0  0  0  0  0  0  0  0  0  0  0  0
   -1.6226   -1.4815   -1.6384 O   0  0  0  0  0  0  0  0  0  0  0  0
   -1.7221   -1.0625    0.6980 N   0  0  0  0  0  0  0  0  0  0  0  0
   -2.9066   -1.7134    1.4330 C   0  0  0  0  0  0  0  0  0  0  0  0
   -3.1188   -0.3584    2.1272 C   0  0  0  0  0  0  0  0  0  0  0  0
   -3.7389   -0.2534    3.5109 C   0  0  0  0  0  0  0  0  0  0  0  0
   -4.2534   -0.1664    4.6589 N   0  0  0  0  0  0  0  0  0  0  0  0
   -1.6255   -0.0846    1.8834 C   0  0  0  0  0  0  0  0  0  0  0  0
    0.6829    0.2389    0.9242 H   0  0  0  0  0  0  0  0  0  0  0  0
    0.6829    0.8318   -0.7195 H   0  0  0  0  0  0  0  0  0  0  0  0
    2.1096    0.0608   -0.0688 H   0  0  0  0  0  0  0  0  0  0  0  0
    0.8895   -1.4653   -1.5480 H   0  0  0  0  0  0  0  0  0  0  0  0
    2.0257   -2.4888    0.4591 H   0  0  0  0  0  0  0  0  0  0  0  0
   -2.1838   -3.0640    2.9147 H   0  0  0  0  0  0  0  0  0  0  0  0
   -4.4762   -2.7202    1.8328 H   0  0  0  0  0  0  0  0  0  0  0  0
   -4.7231   -2.1833   -3.0668 H   0  0  0  0  0  0  0  0  0  0  0  0
   -1.2849   -3.9286   -7.8560 H   0  0  0  0  0  0  0  0  0  0  0  0
    0.2516   -3.2767   -7.3392 H   0  0  0  0  0  0  0  0  0  0  0  0
   -0.3662   -4.7397   -6.6105 H   0  0  0  0  0  0  0  0  0  0  0  0
   -1.3910   -1.0864   -8.1724 H   0  0  0  0  0  0  0  0  0  0  0  0
   -3.3752    1.7028   -5.7414 H   0  0  0  0  0  0  0  0  0  0  0  0
   -3.6953   -2.2101    0.9075 H   0  0  0  0  0  0  0  0  0  0  0  0
   -2.6404   -2.5157    2.0890 H   0  0  0  0  0  0  0  0  0  0  0  0
   -3.7845    0.3062    1.6171 H   0  0  0  0  0  0  0  0  0  0  0  0
   -0.8944   -0.2009    2.6560 H   0  0  0  0  0  0  0  0  0  0  0  0
   -1.3932    0.9245    1.6140 H   0  0  0  0  0  0  0  0  0  0  0  0
  1  2  1  0  0  0  0
  1 35  1  0  0  0  0
  1 36  1  0  0  0  0
  1 37  1  0  0  0  0
  2  3  1  0  0  0  0
  2 27  1  0  0  0  0
  2 38  1  0  0  0  0
  3  4  1  0  0  0  0
  3 39  1  0  0  0  0
  4  5  2  0  0  0  0
  4  6  1  0  0  0  0
  6  7  2  0  0  0  0
  6 26  1  0  0  0  0
  7  8  1  0  0  0  0
  7 40  1  0  0  0  0
  8  9  1  0  0  0  0
  8 41  1  0  0  0  0
  9 10  1  0  0  0  0
  9 26  2  0  0  0  0
 10 11  2  0  0  0  0
 11 12  1  0  0  0  0
 11 42  1  0  0  0  0
 12 13  1  0  0  0  0
 12 25  2  0  0  0  0
 13 14  2  0  0  0  0
 13 24  1  0  0  0  0
 14 15  1  0  0  0  0
 15 16  1  0  0  0  0
 15 17  1  0  0  0  0
 16 43  1  0  0  0  0
 16 44  1  0  0  0  0
 16 45  1  0  0  0  0
 17 18  1  0  0  0  0
 17 24  2  0  0  0  0
 18 19  2  0  0  0  0
 18 46  1  0  0  0  0
 19 20  1  0  0  0  0
 19 21  1  0  0  0  0
 21 22  2  0  0  0  0
 21 47  1  0  0  0  0
 22 23  1  0  0  0  0
 22 24  1  0  0  0  0
 25 26  1  0  0  0  0
 27 28  2  0  0  0  0
 27 29  1  0  0  0  0
 29 30  1  0  0  0  0
 29 34  1  0  0  0  0
 30 31  1  0  0  0  0
 30 48  1  0  0  0  0
 30 49  1  0  0  0  0
 31 32  1  0  0  0  0
 31 34  1  0  0  0  0
 31 50  1  0  0  0  0
 32 33  3  0  0  0  0
 34 51  1  0  0  0  0
 34 52  1  0  0  0  0
M  END
