REMARK  Name = 
REMARK  11 active torsions:
REMARK  status: ('A' for Active; 'I' for Inactive)
REMARK    1  A    between atoms: C_1  and  O_2
REMARK    2  A    between atoms: O_2  and  C_3
REMARK    3  A    between atoms: N_10  and  C_11
REMARK    4  A    between atoms: C_21  and  C_22
REMARK    5  A    between atoms: C_22  and  N_23
REMARK    6  A    between atoms: N_23  and  C_24
REMARK    7  A    between atoms: N_23  and  C_25
REMARK    8  A    between atoms: C_25  and  C_26
REMARK    9  A    between atoms: N_30  and  C_31
REMARK   10  A    between atoms: C_31  and  C_32
REMARK   11  A    between atoms: C_31  and  C_33
REMARK                            x       y       z     vdW  Elec       q    Type
REMARK                         _______ _______ _______ _____ _____    ______ ____
ROOT
ATOM      1  C   UNL     1       0.862   2.262  -0.704  0.00  0.00    +0.000 A 
ATOM      2  C   UNL     1      -0.121   3.202  -0.842  0.00  0.00    +0.000 A 
ATOM      3  C   UNL     1       0.174   4.571  -0.654  0.00  0.00    +0.000 A 
ATOM      4  N   UNL     1      -0.825   5.505  -0.763  0.00  0.00    +0.000 NA
ATOM      5  C   UNL     1      -0.481   6.750  -0.580  0.00  0.00    +0.000 A 
ATOM      6  N   UNL     1       0.773   7.224  -0.305  0.00  0.00    +0.000 NA
ATOM      7  C   UNL     1       1.740   6.344  -0.212  0.00  0.00    +0.000 A 
ATOM      8  N   UNL     1       3.108   6.812   0.057  0.00  0.00    +0.000 N 
ATOM      9  C   UNL     1       1.504   4.948  -0.363  0.00  0.00    +0.000 A 
ATOM     10  C   UNL     1       2.506   3.959  -0.240  0.00  0.00    +0.000 A 
ATOM     11  C   UNL     1       2.184   2.641  -0.401  0.00  0.00    +0.000 A 
ATOM     12  H   UNL     1       3.871   6.140   0.133  0.00  0.00    +0.000 HD
ENDROOT
BRANCH   8  13
ATOM     13  C   UNL     1       3.375   8.249   0.216  0.00  0.00    +0.000 A 
ATOM     14  C   UNL     1       4.239   8.878  -0.656  0.00  0.00    +0.000 A 
ATOM     15  C   UNL     1       4.501  10.238  -0.552  0.00  0.00    +0.000 A 
ATOM     16  C   UNL     1       3.875  10.972   0.454  0.00  0.00    +0.000 A 
ATOM     17  C   UNL     1       3.009  10.341   1.327  0.00  0.00    +0.000 A 
ATOM     18 CL   UNL     1       2.195  11.250   2.553  0.00  0.00    +0.000 Cl
ATOM     19  C   UNL     1       2.773   8.990   1.201  0.00  0.00    +0.000 A 
ATOM     20  F   UNL     1       1.910   8.389   2.044  0.00  0.00    +0.000 F 
ENDBRANCH   8  13
BRANCH   1  22
ATOM     21  C   UNL     1       0.993  -0.068   0.073  0.00  0.00    +0.000 C 
ATOM     22  O   UNL     1       0.519   0.893  -0.859  0.00  0.00    +0.000 OA
ENDBRANCH   1  22
BRANCH  11  23
ATOM     23  C   UNL     1       3.260   1.577  -0.254  0.00  0.00    +0.000 C 
BRANCH  23  24
ATOM     24  N   UNL     1       4.319   1.811  -1.245  0.00  0.00    +0.000 NA
ATOM     25  C   UNL     1       5.360   0.782  -1.102  0.00  0.00    +0.000 C 
BRANCH  24  26
ATOM     26  C   UNL     1       3.748   1.745  -2.598  0.00  0.00    +0.000 C 
ATOM     27  C   UNL     1       2.768   0.582  -2.828  0.00  0.00    +0.000 C 
ATOM     28  N   UNL     1       1.930   1.558  -3.669  0.00  0.00    +0.000 NA
ATOM     29  C   UNL     1       2.558   2.692  -2.843  0.00  0.00    +0.000 C 
BRANCH  26  30
ATOM     30  C   UNL     1       5.048   1.869  -3.376  0.00  0.00    +0.000 C 
ATOM     31  N   UNL     1       6.324   2.000  -2.659  0.00  0.00    +0.000 N 
ATOM     32  O   UNL     1       5.031   1.859  -4.647  0.00  0.00    +0.000 OA
ATOM     33  H   UNL     1       7.196   2.083  -3.182  0.00  0.00    +0.000 HD
ATOM     34  H   UNL     1       6.338   2.008  -1.639  0.00  0.00    +0.000 HD
ENDBRANCH  26  30
BRANCH  28  35
ATOM     35  C   UNL     1       2.265   1.581  -5.100  0.00  0.00    +0.000 C 
ATOM     36  C   UNL     1       3.719   1.989  -5.273  0.00  0.00    +0.000 C 
ATOM     37  C   UNL     1       2.054   0.197  -5.693  0.00  0.00    +0.000 C 
ENDBRANCH  28  35
ENDBRANCH  24  26
ENDBRANCH  23  24
ENDBRANCH  11  23
TORSDOF 7
