REMARK  Name = 
REMARK  9 active torsions:
REMARK  status: ('A' for Active; 'I' for Inactive)
REMARK    1  A    between atoms: C_1  and  C_2
REMARK    2  A    between atoms: C_5  and  N_6
REMARK    3  A    between atoms: C_8  and  C_9
REMARK    4  A    between atoms: C_9  and  C_10
REMARK    5  A    between atoms: C_9  and  C_11
REMARK    6  A    between atoms: C_9  and  C_12
REMARK    7  A    between atoms: C_14  and  N_15
REMARK    8  A    between atoms: N_18  and  C_19
REMARK    9  A    between atoms: C_22  and  N_23
REMARK                            x       y       z     vdW  Elec       q    Type
REMARK                         _______ _______ _______ _____ _____    ______ ____
ROOT
ATOM      1  N   UNL     1      -3.602  -1.217   2.080  0.00  0.00    +0.000 N 
ATOM      2  C   UNL     1      -2.167  -1.367   2.364  0.00  0.00    +0.000 C 
ATOM      3  O   UNL     1      -1.787  -1.970   3.416  0.00  0.00    +0.000 OA
ATOM      4  N   UNL     1      -1.172  -0.818   1.431  0.00  0.00    +0.000 N 
ATOM      5  H   UNL     1      -4.292  -1.597   2.727  0.00  0.00    +0.000 HD
ATOM      6  H   UNL     1      -0.177  -0.922   1.628  0.00  0.00    +0.000 HD
ENDROOT
BRANCH   4   7
ATOM      7  C   UNL     1      -1.611  -0.120   0.215  0.00  0.00    +0.000 A 
ATOM      8  C   UNL     1      -1.049  -0.557  -0.973  0.00  0.00    +0.000 A 
ATOM      9  C   UNL     1      -1.390   0.234  -2.095  0.00  0.00    +0.000 A 
ATOM     10  C   UNL     1      -2.406   1.077  -2.135  0.00  0.00    +0.000 A 
ATOM     11  C   UNL     1      -2.962   1.418  -0.934  0.00  0.00    +0.000 A 
ATOM     12  C   UNL     1      -2.587   0.781   0.224  0.00  0.00    +0.000 A 
BRANCH  10  13
ATOM     13  N   UNL     1      -2.912   1.621  -3.405  0.00  0.00    +0.000 N 
ATOM     14  C   UNL     1      -2.978   2.920  -3.782  0.00  0.00    +0.000 A 
ATOM     15  N   UNL     1      -3.639   2.931  -4.965  0.00  0.00    +0.000 NA
ATOM     16  C   UNL     1      -3.945   1.695  -5.252  0.00  0.00    +0.000 A 
ATOM     17  C   UNL     1      -4.655   1.268  -6.430  0.00  0.00    +0.000 A 
ATOM     18  N   UNL     1      -5.094   2.259  -7.423  0.00  0.00    +0.000 N 
ATOM     19  N   UNL     1      -4.925  -0.084  -6.628  0.00  0.00    +0.000 NA
ATOM     20  C   UNL     1      -5.611  -0.497  -7.768  0.00  0.00    +0.000 A 
ATOM     21  N   UNL     1      -3.674  -0.467  -4.299  0.00  0.00    +0.000 NA
ATOM     22  C   UNL     1      -3.516   0.917  -4.322  0.00  0.00    +0.000 A 
ATOM     23  H   UNL     1      -5.597   1.957  -8.258  0.00  0.00    +0.000 HD
ATOM     24  H   UNL     1      -4.896   3.249  -7.278  0.00  0.00    +0.000 HD
ENDBRANCH  10  13
ENDBRANCH   4   7
BRANCH   1  29
ATOM     25  N   UNL     1      -3.269   0.014  -0.044  0.00  0.00    +0.000 N 
ATOM     26  N   UNL     1      -3.989   0.542  -0.969  0.00  0.00    +0.000 NA
ATOM     27  C   UNL     1      -5.253   0.364  -0.697  0.00  0.00    +0.000 A 
ATOM     28  C   UNL     1      -5.323  -0.308   0.478  0.00  0.00    +0.000 A 
ATOM     29  C   UNL     1      -4.041  -0.518   0.864  0.00  0.00    +0.000 A 
BRANCH  25  34
ATOM     30  C   UNL     1       2.492   0.004  -0.014  0.00  0.00    +0.000 C 
ATOM     31  C   UNL     1       0.991  -0.005   0.013  0.00  0.00    +0.000 A 
ATOM     32  C   UNL     1       0.258  -1.197   0.006  0.00  0.00    +0.000 A 
ATOM     33  C   UNL     1      -1.108  -1.202   0.001  0.00  0.00    +0.000 A 
ATOM     34  C   UNL     1      -1.799   0.010  -0.013  0.00  0.00    +0.000 A 
ATOM     35  C   UNL     1      -1.109   1.206   0.002  0.00  0.00    +0.000 A 
ATOM     36  C   UNL     1       0.275   1.184   0.005  0.00  0.00    +0.000 A 
ENDBRANCH  25  34
BRANCH  27  37
ATOM     37  C   UNL     1      -6.429   0.826  -1.542  0.00  0.00    +0.000 C 
ATOM     38  C   UNL     1      -6.386   2.338  -1.687  0.00  0.00    +0.000 C 
ATOM     39  C   UNL     1      -6.349   0.182  -2.917  0.00  0.00    +0.000 C 
ATOM     40  C   UNL     1      -7.729   0.418  -0.867  0.00  0.00    +0.000 C 
ENDBRANCH  27  37
ENDBRANCH   1  29
TORSDOF 5
