REMARK  Name = 
REMARK  5 active torsions:
REMARK  status: ('A' for Active; 'I' for Inactive)
REMARK    1  A    between atoms: C_1  and  O_2
REMARK    2  A    between atoms: O_2  and  C_3
REMARK    3  A    between atoms: C_12  and  C_14
REMARK    4  A    between atoms: C_23  and  C_24
REMARK    5  A    between atoms: C_24  and  O_26
REMARK                            x       y       z     vdW  Elec       q    Type
REMARK                         _______ _______ _______ _____ _____    ______ ____
ROOT
ATOM      1  C   UNL     1       0.804  -1.384   2.082  0.00  0.00    +0.000 A 
ATOM      2  C   UNL     1       2.110  -1.893   2.084  0.00  0.00    +0.000 A 
ATOM      3  C   UNL     1       2.416  -2.954   2.890  0.00  0.00    +0.000 A 
ATOM      4  C   UNL     1       1.419  -3.511   3.698  0.00  0.00    +0.000 A 
ATOM      5  C   UNL     1       0.145  -2.997   3.680  0.00  0.00    +0.000 A 
ATOM      6  C   UNL     1      -0.147  -1.936   2.868  0.00  0.00    +0.000 A 
ATOM      7  C   UNL     1      -0.629  -3.712   4.550  0.00  0.00    +0.000 A 
ATOM      8  C   UNL     1       0.118  -4.681   5.126  0.00  0.00    +0.000 A 
ATOM      9  N   UNL     1       1.428  -4.585   4.614  0.00  0.00    +0.000 N 
ATOM     10  C   UNL     1       2.576  -5.435   4.965  0.00  0.00    +0.000 C 
ATOM     11  O   UNL     1       2.437  -6.372   5.812  0.00  0.00    +0.000 OA
ATOM     12  C   UNL     1      -0.400  -5.669   6.141  0.00  0.00    +0.000 C 
ATOM     13  C   UNL     1      -1.732  -5.144   6.691  0.00  0.00    +0.000 C 
ATOM     14  C   UNL     1      -2.646  -4.757   5.524  0.00  0.00    +0.000 C 
ATOM     15  C   UNL     1      -2.095  -3.494   4.846  0.00  0.00    +0.000 C 
ENDROOT
BRANCH  10  16
ATOM     16  C   UNL     1       3.928  -5.193   4.314  0.00  0.00    +0.000 A 
ATOM     17  C   UNL     1       4.589  -3.943   4.467  0.00  0.00    +0.000 A 
ATOM     18  C   UNL     1       5.669  -3.627   3.626  0.00  0.00    +0.000 A 
ATOM     19  C   UNL     1       6.231  -4.557   2.911  0.00  0.00    +0.000 A 
ATOM     20 CL   UNL     1       7.590  -4.153   1.836  0.00  0.00    +0.000 Cl
ATOM     21  C   UNL     1       5.767  -5.878   2.987  0.00  0.00    +0.000 A 
ATOM     22  C   UNL     1       4.511  -6.145   3.584  0.00  0.00    +0.000 A 
ENDBRANCH  10  16
BRANCH   1  24
ATOM     23  C   UNL     1       0.934   0.026   0.070  0.00  0.00    +0.000 C 
ATOM     24  O   UNL     1       0.461  -0.191   1.392  0.00  0.00    +0.000 OA
ENDBRANCH   1  24
BRANCH  14  25
ATOM     25  C   UNL     1      -2.695  -5.895   4.517  0.00  0.00    +0.000 C 
ATOM     26  O   UNL     1      -3.803  -6.451   4.240  0.00  0.00    +0.000 OA
BRANCH  25  27
ATOM     27  O   UNL     1      -1.502  -6.337   3.887  0.00  0.00    +0.000 OA
ATOM     28  H   UNL     1      -1.534  -7.085   3.224  0.00  0.00    +0.000 HD
ENDBRANCH  25  27
ENDBRANCH  14  25
TORSDOF 4
