
 OpenBabel03132514253D

 41 44  0  0  0  0  0  0  0  0999 V2000
    0.9863    0.0832    0.0538 C   0  0  0  0  0  0  0  0  0  0  0  0
    0.4963    1.0199    1.0752 N   0  0  0  0  0  0  0  0  0  0  0  0
   -0.3489    2.1574    0.6843 C   0  0  0  0  0  0  0  0  0  0  0  0
   -0.7725    2.9673    1.5674 O   0  0  0  0  0  0  0  0  0  0  0  0
   -0.7161    2.3650   -0.7760 C   0  0  0  0  0  0  0  0  0  0  0  0
   -1.1389    1.2467   -1.5438 C   0  0  0  0  0  0  0  0  0  0  0  0
   -1.4891    1.3673   -2.8532 C   0  0  0  0  0  0  0  0  0  0  0  0
   -1.4159    2.6507   -3.4416 C   0  0  0  0  0  0  0  0  0  0  0  0
   -1.6813    2.9869   -4.7133 N   0  0  0  0  0  0  0  0  0  0  0  0
   -1.4474    4.3275   -4.7524 N   0  0  0  0  0  0  0  0  0  0  0  0
   -1.0501    4.8579   -3.5574 C   0  0  0  0  0  0  0  0  0  0  0  0
   -0.7100    6.3088   -3.2582 C   0  0  0  0  0  0  0  0  0  0  0  0
    0.4488    6.7494   -4.1377 C   0  0  0  0  0  0  0  0  0  0  0  0
    0.2910    6.6998   -5.5399 C   0  0  0  0  0  0  0  0  0  0  0  0
    1.3051    7.0261   -6.4122 C   0  0  0  0  0  0  0  0  0  0  0  0
    2.5170    7.4201   -5.8035 C   0  0  0  0  0  0  0  0  0  0  0  0
    2.6855    7.5035   -4.4185 C   0  0  0  0  0  0  0  0  0  0  0  0
    4.0123    7.9895   -4.2485 C   0  0  0  0  0  0  0  0  0  0  0  0
    4.6059    8.1766   -5.4290 N   0  0  0  0  0  0  0  0  0  0  0  0
    3.6877    7.8254   -6.3723 N   0  0  0  0  0  0  0  0  0  0  0  0
    4.0200    7.8166   -7.7810 C   0  0  0  0  0  0  0  0  0  0  0  0
    1.6204    7.1497   -3.5666 C   0  0  0  0  0  0  0  0  0  0  0  0
   -1.0237    3.7774   -2.6684 C   0  0  0  0  0  0  0  0  0  0  0  0
   -0.6699    3.6186   -1.3050 C   0  0  0  0  0  0  0  0  0  0  0  0
    0.6296    0.3861   -0.9084 H   0  0  0  0  0  0  0  0  0  0  0  0
    0.6296   -0.9016    0.2726 H   0  0  0  0  0  0  0  0  0  0  0  0
    2.0563    0.0832    0.0538 H   0  0  0  0  0  0  0  0  0  0  0  0
    0.7427    0.8807    2.0551 H   0  0  0  0  0  0  0  0  0  0  0  0
   -1.1833    0.2836   -1.0798 H   0  0  0  0  0  0  0  0  0  0  0  0
   -1.8097    0.5179   -3.4195 H   0  0  0  0  0  0  0  0  0  0  0  0
   -1.5588    4.8862   -5.5984 H   0  0  0  0  0  0  0  0  0  0  0  0
   -1.5629    6.9235   -3.4577 H   0  0  0  0  0  0  0  0  0  0  0  0
   -0.4336    6.4055   -2.2291 H   0  0  0  0  0  0  0  0  0  0  0  0
   -0.6538    6.3966   -5.9404 H   0  0  0  0  0  0  0  0  0  0  0  0
    1.1837    6.9843   -7.4745 H   0  0  0  0  0  0  0  0  0  0  0  0
    4.4722    8.1793   -3.3012 H   0  0  0  0  0  0  0  0  0  0  0  0
    3.9660    6.8152   -8.1539 H   0  0  0  0  0  0  0  0  0  0  0  0
    3.3276    8.4337   -8.3146 H   0  0  0  0  0  0  0  0  0  0  0  0
    5.0119    8.1945   -7.9159 H   0  0  0  0  0  0  0  0  0  0  0  0
    1.7278    7.1938   -2.5029 H   0  0  0  0  0  0  0  0  0  0  0  0
   -0.3758    4.4579   -0.7100 H   0  0  0  0  0  0  0  0  0  0  0  0
  1  2  1  0  0  0  0
  1 25  1  0  0  0  0
  1 26  1  0  0  0  0
  1 27  1  0  0  0  0
  2  3  1  0  0  0  0
  2 28  1  0  0  0  0
  3  4  2  0  0  0  0
  3  5  1  0  0  0  0
  5  6  1  0  0  0  0
  5 24  2  0  0  0  0
  6  7  2  0  0  0  0
  6 29  1  0  0  0  0
  7  8  1  0  0  0  0
  7 30  1  0  0  0  0
  8  9  2  0  0  0  0
  8 23  1  0  0  0  0
  9 10  1  0  0  0  0
 10 11  1  0  0  0  0
 10 31  1  0  0  0  0
 11 12  1  0  0  0  0
 11 23  2  0  0  0  0
 12 13  1  0  0  0  0
 12 32  1  0  0  0  0
 12 33  1  0  0  0  0
 13 14  1  0  0  0  0
 13 22  2  0  0  0  0
 14 15  2  0  0  0  0
 14 34  1  0  0  0  0
 15 16  1  0  0  0  0
 15 35  1  0  0  0  0
 16 17  2  0  0  0  0
 16 20  1  0  0  0  0
 17 18  1  0  0  0  0
 17 22  1  0  0  0  0
 18 19  2  0  0  0  0
 18 36  1  0  0  0  0
 19 20  1  0  0  0  0
 20 21  1  0  0  0  0
 21 37  1  0  0  0  0
 21 38  1  0  0  0  0
 21 39  1  0  0  0  0
 22 40  1  0  0  0  0
 23 24  1  0  0  0  0
 24 41  1  0  0  0  0
M  END
