
 OpenBabel03132514253D

 47 50  0  0  0  0  0  0  0  0999 V2000
    1.0505    0.0840    0.0198 C   0  0  0  0  0  0  0  0  0  0  0  0
    0.5605    1.3577    0.5661 N   0  0  0  0  0  0  0  0  0  0  0  0
   -0.9095    1.3577    0.5661 C   0  0  0  0  0  0  0  0  0  0  0  0
    1.1472    1.5537    2.2139 S   0  0  0  0  0  0  0  0  0  0  0  0
    0.6371    0.3981    3.0779 O   0  0  0  0  0  0  0  0  0  0  0  0
    2.6776    1.5537    2.2139 O   0  0  0  0  0  0  0  0  0  0  0  0
    0.5605    3.0787    2.8680 N   0  0  0  0  0  0  0  0  0  0  0  0
   -0.2846    3.9552    2.0443 C   0  0  0  0  0  0  0  0  0  0  0  0
   -1.3161    3.3686    1.3312 C   0  0  0  0  0  0  0  0  0  0  0  0
   -2.2298    4.1449    0.6407 C   0  0  0  0  0  0  0  0  0  0  0  0
   -2.0752    5.5154    0.6711 C   0  0  0  0  0  0  0  0  0  0  0  0
   -2.9806    6.2698    0.0059 F   0  0  0  0  0  0  0  0  0  0  0  0
   -1.0478    6.1707    1.3451 C   0  0  0  0  0  0  0  0  0  0  0  0
   -0.9018    7.6335    1.3385 N   0  0  0  0  0  0  0  0  0  0  0  0
    0.2056    8.2649    2.0706 C   0  0  0  0  0  0  0  0  0  0  0  0
   -0.1250    9.0909    3.0680 N   0  0  0  0  0  0  0  0  0  0  0  0
    0.8707    9.6222    3.7946 C   0  0  0  0  0  0  0  0  0  0  0  0
    2.2008    9.3456    3.5468 C   0  0  0  0  0  0  0  0  0  0  0  0
    2.5410    8.4990    2.4888 C   0  0  0  0  0  0  0  0  0  0  0  0
    1.5050    7.9556    1.7397 C   0  0  0  0  0  0  0  0  0  0  0  0
    1.8027    7.0316    0.5701 C   0  0  0  0  0  0  0  0  0  0  0  0
    2.4674    5.9007    0.7885 N   0  0  0  0  0  0  0  0  0  0  0  0
    2.5802    5.0097   -0.2039 C   0  0  0  0  0  0  0  0  0  0  0  0
    2.1163    5.0826   -1.4395 N   0  0  0  0  0  0  0  0  0  0  0  0
    1.4511    6.2261   -1.6538 C   0  0  0  0  0  0  0  0  0  0  0  0
    0.8048    6.5576   -2.8218 N   0  0  0  0  0  0  0  0  0  0  0  0
    0.2452    7.7189   -2.5628 C   0  0  0  0  0  0  0  0  0  0  0  0
    0.4766    8.1746   -1.3292 N   0  0  0  0  0  0  0  0  0  0  0  0
    1.2668    7.2358   -0.6984 C   0  0  0  0  0  0  0  0  0  0  0  0
   -0.1699    5.3315    2.0258 C   0  0  0  0  0  0  0  0  0  0  0  0
    0.8655    5.8997    2.6854 F   0  0  0  0  0  0  0  0  0  0  0  0
    0.6939   -0.0352   -0.9819 H   0  0  0  0  0  0  0  0  0  0  0  0
    0.6939   -0.7240    0.6239 H   0  0  0  0  0  0  0  0  0  0  0  0
    2.1205    0.0840    0.0198 H   0  0  0  0  0  0  0  0  0  0  0  0
   -1.2661    0.5497    1.1702 H   0  0  0  0  0  0  0  0  0  0  0  0
   -1.2661    2.2848    0.9638 H   0  0  0  0  0  0  0  0  0  0  0  0
   -1.2661    1.2385   -0.4356 H   0  0  0  0  0  0  0  0  0  0  0  0
    0.8069    3.3544    3.8186 H   0  0  0  0  0  0  0  0  0  0  0  0
   -1.4079    2.3026    1.3140 H   0  0  0  0  0  0  0  0  0  0  0  0
   -3.0344    3.6945    0.0978 H   0  0  0  0  0  0  0  0  0  0  0  0
   -1.5688    8.2103    0.8258 H   0  0  0  0  0  0  0  0  0  0  0  0
    0.6243   10.2858    4.5970 H   0  0  0  0  0  0  0  0  0  0  0  0
    2.9646    9.7762    4.1601 H   0  0  0  0  0  0  0  0  0  0  0  0
    3.5632    8.2770    2.2634 H   0  0  0  0  0  0  0  0  0  0  0  0
    3.1193    4.1170    0.0355 H   0  0  0  0  0  0  0  0  0  0  0  0
   -0.3445    8.2526   -3.2785 H   0  0  0  0  0  0  0  0  0  0  0  0
    0.1348    9.0488   -0.9299 H   0  0  0  0  0  0  0  0  0  0  0  0
  1  2  1  0  0  0  0
  1 32  1  0  0  0  0
  1 33  1  0  0  0  0
  1 34  1  0  0  0  0
  2  3  1  0  0  0  0
  2  4  1  0  0  0  0
  3 35  1  0  0  0  0
  3 36  1  0  0  0  0
  3 37  1  0  0  0  0
  4  5  2  0  0  0  0
  4  6  2  0  0  0  0
  4  7  1  0  0  0  0
  7  8  1  0  0  0  0
  7 38  1  0  0  0  0
  8  9  1  0  0  0  0
  8 30  2  0  0  0  0
  9 10  2  0  0  0  0
  9 39  1  0  0  0  0
 10 11  1  0  0  0  0
 10 40  1  0  0  0  0
 11 12  1  0  0  0  0
 11 13  2  0  0  0  0
 13 14  1  0  0  0  0
 13 30  1  0  0  0  0
 14 15  1  0  0  0  0
 14 41  1  0  0  0  0
 15 16  1  0  0  0  0
 15 20  2  0  0  0  0
 16 17  2  0  0  0  0
 17 18  1  0  0  0  0
 17 42  1  0  0  0  0
 18 19  2  0  0  0  0
 18 43  1  0  0  0  0
 19 20  1  0  0  0  0
 19 44  1  0  0  0  0
 20 21  1  0  0  0  0
 21 22  1  0  0  0  0
 21 29  2  0  0  0  0
 22 23  2  0  0  0  0
 23 24  1  0  0  0  0
 23 45  1  0  0  0  0
 24 25  2  0  0  0  0
 25 26  1  0  0  0  0
 25 29  1  0  0  0  0
 26 27  2  0  0  0  0
 27 28  1  0  0  0  0
 27 46  1  0  0  0  0
 28 29  1  0  0  0  0
 28 47  1  0  0  0  0
 30 31  1  0  0  0  0
M  END
