REMARK  Name = 
REMARK  7 active torsions:
REMARK  status: ('A' for Active; 'I' for Inactive)
REMARK    1  A    between atoms: C_1  and  S_2
REMARK    2  A    between atoms: S_2  and  C_3
REMARK    3  A    between atoms: C_8  and  N_9
REMARK    4  A    between atoms: N_9  and  C_10
REMARK    5  A    between atoms: N_16  and  C_17
REMARK    6  A    between atoms: N_28  and  C_29
REMARK    7  A    between atoms: C_29  and  C_30
REMARK                            x       y       z     vdW  Elec       q    Type
REMARK                         _______ _______ _______ _____ _____    ______ ____
ROOT
ATOM      1  C   UNL     1      -0.042   2.937  -2.762  0.00  0.00    +0.000 A 
ATOM      2  N   UNL     1      -0.727   3.213  -3.901  0.00  0.00    +0.000 NA
ATOM      3  C   UNL     1      -1.019   4.539  -4.263  0.00  0.00    +0.000 A 
ATOM      4  N   UNL     1      -1.769   4.810  -5.498  0.00  0.00    +0.000 N 
ATOM      5  C   UNL     1      -1.303   5.622  -6.628  0.00  0.00    +0.000 C 
ATOM      6  C   UNL     1      -1.308   4.829  -7.921  0.00  0.00    +0.000 C 
ATOM      7  N   UNL     1      -2.663   4.346  -8.214  0.00  0.00    +0.000 NA
ATOM      8  C   UNL     1      -3.129   3.533  -7.084  0.00  0.00    +0.000 C 
ATOM      9  C   UNL     1      -3.124   4.326  -5.791  0.00  0.00    +0.000 C 
ATOM     10  N   UNL     1      -0.606   5.592  -3.466  0.00  0.00    +0.000 NA
ATOM     11  C   UNL     1       0.098   5.329  -2.282  0.00  0.00    +0.000 A 
ATOM     12  C   UNL     1       0.527   6.379  -1.447  0.00  0.00    +0.000 A 
ATOM     13  N   UNL     1       0.232   7.773  -1.809  0.00  0.00    +0.000 N 
ATOM     14  N   UNL     1       1.211   6.105  -0.309  0.00  0.00    +0.000 NA
ATOM     15  C   UNL     1       1.504   4.777   0.055  0.00  0.00    +0.000 A 
ATOM     16  N   UNL     1       1.096   3.722  -0.746  0.00  0.00    +0.000 NA
ATOM     17  C   UNL     1       0.387   3.986  -1.926  0.00  0.00    +0.000 A 
ATOM     18  H   UNL     1      -0.283   7.980  -2.664  0.00  0.00    +0.000 HD
ENDROOT
BRANCH   7  19
ATOM     19  C   UNL     1      -3.565   5.490  -8.406  0.00  0.00    +0.000 C 
ATOM     20  C   UNL     1      -4.076   6.711  -7.645  0.00  0.00    +0.000 C 
ATOM     21  C   UNL     1      -5.439   6.441  -7.044  0.00  0.00    +0.000 C 
ATOM     22  N   UNL     1      -6.399   6.068  -8.091  0.00  0.00    +0.000 NA
ATOM     23  C   UNL     1      -5.959   4.831  -8.734  0.00  0.00    +0.000 C 
ATOM     24  C   UNL     1      -4.613   5.019  -9.413  0.00  0.00    +0.000 C 
ATOM     25  H   UNL     1      -7.319   5.928  -7.675  0.00  0.00    +0.000 HD
ENDBRANCH   7  19
BRANCH   1  26
ATOM     26  N   UNL     1       0.152   1.527  -2.395  0.00  0.00    +0.000 N 
ATOM     27  H   UNL     1      -0.214   1.175  -1.510  0.00  0.00    +0.000 HD
BRANCH  26  33
ATOM     28  C   UNL     1       1.045  -0.649  -2.966  0.00  0.00    +0.000 A 
ATOM     29  C   UNL     1       1.580  -1.563  -3.859  0.00  0.00    +0.000 A 
ATOM     30  C   UNL     1       2.175  -0.971  -4.998  0.00  0.00    +0.000 A 
ATOM     31  C   UNL     1       1.956   0.268  -5.399  0.00  0.00    +0.000 A 
ATOM     32  C   UNL     1       1.363   1.104  -4.494  0.00  0.00    +0.000 A 
ATOM     33  C   UNL     1       0.873   0.623  -3.304  0.00  0.00    +0.000 A 
BRANCH  28  35
ATOM     34  C   UNL     1       1.045  -0.054  -0.071  0.00  0.00    +0.000 C 
ATOM     35  S   UNL     1       0.441  -1.188  -1.347  0.00  0.00    +0.000 S 
ENDBRANCH  28  35
ENDBRANCH  26  33
ENDBRANCH   1  26
BRANCH  13  36
ATOM     36  C   UNL     1       0.679   8.869  -0.937  0.00  0.00    +0.000 C 
BRANCH  36  37
ATOM     37  C   UNL     1       1.609   9.786  -1.714  0.00  0.00    +0.000 C 
ATOM     38  C   UNL     1       1.274  10.533  -3.006  0.00  0.00    +0.000 C 
ATOM     39  C   UNL     1       1.517  11.314  -1.713  0.00  0.00    +0.000 C 
ENDBRANCH  36  37
ENDBRANCH  13  36
TORSDOF 6
