
 OpenBabel03132514253D

 70 74  0  0  0  0  0  0  0  0999 V2000
    1.0587   -0.0806   -0.0080 C   0  0  0  0  0  0  0  0  0  0  0  0
    0.4553   -0.2943    1.6850 S   0  0  0  0  0  0  0  0  0  0  0  0
    0.9655    0.8550    2.5573 O   0  0  0  0  0  0  0  0  0  0  0  0
   -1.0751   -0.2943    1.6850 O   0  0  0  0  0  0  0  0  0  0  0  0
    1.0587   -1.8674    2.3464 C   0  0  0  0  0  0  0  0  0  0  0  0
    0.5520   -3.0090    1.4800 C   0  0  0  0  0  0  0  0  0  0  0  0
    1.0420   -2.8354    0.1050 N   0  0  0  0  0  0  0  0  0  0  0  0
    0.5520   -3.9394   -0.7328 C   0  0  0  0  0  0  0  0  0  0  0  0
   -0.9680   -3.9394   -0.7328 C   0  0  0  0  0  0  0  0  0  0  0  0
   -2.2289   -3.9394   -0.7328 N   0  0  0  0  0  0  0  0  0  0  0  0
    0.5520   -1.5578   -0.4321 C   0  0  0  0  0  0  0  0  0  0  0  0
   -0.9680   -1.5578   -0.4321 C   0  0  0  0  0  0  0  0  0  0  0  0
   -1.7117   -2.6731   -0.4336 C   0  0  0  0  0  0  0  0  0  0  0  0
   -3.0552   -2.2236   -0.4487 C   0  0  0  0  0  0  0  0  0  0  0  0
   -3.0225   -0.8675   -0.4528 C   0  0  0  0  0  0  0  0  0  0  0  0
   -4.2457    0.0344   -0.4780 C   0  0  0  0  0  0  0  0  0  0  0  0
   -5.1903   -0.0388    0.5636 C   0  0  0  0  0  0  0  0  0  0  0  0
   -6.2978    0.7628    0.5610 C   0  0  0  0  0  0  0  0  0  0  0  0
   -6.4949    1.6991   -0.4785 C   0  0  0  0  0  0  0  0  0  0  0  0
   -7.5930    2.5208   -0.4567 N   0  0  0  0  0  0  0  0  0  0  0  0
   -7.7130    3.3587   -1.4494 C   0  0  0  0  0  0  0  0  0  0  0  0
   -6.8678    3.4941   -2.5173 N   0  0  0  0  0  0  0  0  0  0  0  0
   -5.8212    2.7053   -2.5585 C   0  0  0  0  0  0  0  0  0  0  0  0
   -4.9007    2.7993   -3.7007 N   0  0  0  0  0  0  0  0  0  0  0  0
   -5.1598    3.7678   -4.7758 C   0  0  0  0  0  0  0  0  0  0  0  0
   -5.2104    5.1122   -4.4440 C   0  0  0  0  0  0  0  0  0  0  0  0
   -5.2859    6.0803   -5.4390 C   0  0  0  0  0  0  0  0  0  0  0  0
   -5.3333    5.6979   -6.7756 C   0  0  0  0  0  0  0  0  0  0  0  0
   -5.4008    6.6745   -7.8042 O   0  0  0  0  0  0  0  0  0  0  0  0
   -5.4487    6.2706   -9.1647 C   0  0  0  0  0  0  0  0  0  0  0  0
   -4.2008    5.4701   -9.4998 C   0  0  0  0  0  0  0  0  0  0  0  0
   -3.0362    6.1066   -9.8170 C   0  0  0  0  0  0  0  0  0  0  0  0
   -1.9220    5.3451  -10.1359 C   0  0  0  0  0  0  0  0  0  0  0  0
   -1.9896    3.9607  -10.1451 C   0  0  0  0  0  0  0  0  0  0  0  0
   -3.1568    3.3833   -9.8098 C   0  0  0  0  0  0  0  0  0  0  0  0
   -3.2278    2.0281   -9.8136 F   0  0  0  0  0  0  0  0  0  0  0  0
   -4.2671    4.0857   -9.4865 C   0  0  0  0  0  0  0  0  0  0  0  0
   -5.3134    4.3485   -7.0859 C   0  0  0  0  0  0  0  0  0  0  0  0
   -5.3902    3.8815   -8.7572 Cl  0  0  0  0  0  0  0  0  0  0  0  0
   -5.1975    3.3686   -6.1112 C   0  0  0  0  0  0  0  0  0  0  0  0
   -5.5510    1.7600   -1.5284 C   0  0  0  0  0  0  0  0  0  0  0  0
   -4.4215    0.9105   -1.5109 C   0  0  0  0  0  0  0  0  0  0  0  0
   -1.7203   -0.4295   -0.4307 O   0  0  0  0  0  0  0  0  0  0  0  0
    0.7020    0.8494   -0.3990 H   0  0  0  0  0  0  0  0  0  0  0  0
    0.7020   -0.8842   -0.6179 H   0  0  0  0  0  0  0  0  0  0  0  0
    2.1287   -0.0806   -0.0080 H   0  0  0  0  0  0  0  0  0  0  0  0
    2.1287   -1.8674    2.3464 H   0  0  0  0  0  0  0  0  0  0  0  0
    0.7020   -1.9938    3.3473 H   0  0  0  0  0  0  0  0  0  0  0  0
    0.9087   -3.9389    1.8710 H   0  0  0  0  0  0  0  0  0  0  0  0
   -0.5180   -3.0090    1.4800 H   0  0  0  0  0  0  0  0  0  0  0  0
    0.9087   -3.8130   -1.7337 H   0  0  0  0  0  0  0  0  0  0  0  0
    0.9087   -4.8693   -0.3418 H   0  0  0  0  0  0  0  0  0  0  0  0
    0.9087   -0.7542    0.1777 H   0  0  0  0  0  0  0  0  0  0  0  0
    0.9087   -1.4314   -1.4330 H   0  0  0  0  0  0  0  0  0  0  0  0
   -1.3651   -3.6854   -0.4251 H   0  0  0  0  0  0  0  0  0  0  0  0
   -3.9310   -2.8383   -0.4557 H   0  0  0  0  0  0  0  0  0  0  0  0
   -5.0396   -0.7298    1.3665 H   0  0  0  0  0  0  0  0  0  0  0  0
   -7.0174    0.6809    1.3486 H   0  0  0  0  0  0  0  0  0  0  0  0
   -8.5623    4.0092   -1.4263 H   0  0  0  0  0  0  0  0  0  0  0  0
   -4.0821    2.1925   -3.7473 H   0  0  0  0  0  0  0  0  0  0  0  0
   -5.1911    5.4072   -3.4156 H   0  0  0  0  0  0  0  0  0  0  0  0
   -5.3075    7.1176   -5.1772 H   0  0  0  0  0  0  0  0  0  0  0  0
   -6.3154    5.6644   -9.3265 H   0  0  0  0  0  0  0  0  0  0  0  0
   -5.4965    7.1360   -9.7922 H   0  0  0  0  0  0  0  0  0  0  0  0
   -2.9836    7.1753   -9.8196 H   0  0  0  0  0  0  0  0  0  0  0  0
   -1.0001    5.8315  -10.3776 H   0  0  0  0  0  0  0  0  0  0  0  0
   -1.1385    3.3692  -10.4110 H   0  0  0  0  0  0  0  0  0  0  0  0
   -5.1757    3.5839   -9.2264 H   0  0  0  0  0  0  0  0  0  0  0  0
   -5.1384    2.3338   -6.3769 H   0  0  0  0  0  0  0  0  0  0  0  0
   -3.7057    0.9537   -2.3050 H   0  0  0  0  0  0  0  0  0  0  0  0
  1  2  1  0  0  0  0
  1 44  1  0  0  0  0
  1 45  1  0  0  0  0
  1 46  1  0  0  0  0
  2  3  2  0  0  0  0
  2  4  2  0  0  0  0
  2  5  1  0  0  0  0
  5  6  1  0  0  0  0
  5 47  1  0  0  0  0
  5 48  1  0  0  0  0
  6  7  1  0  0  0  0
  6 49  1  0  0  0  0
  6 50  1  0  0  0  0
  7  8  1  0  0  0  0
  7 11  1  0  0  0  0
  8  9  1  0  0  0  0
  8 51  1  0  0  0  0
  8 52  1  0  0  0  0
  9 10  3  0  0  0  0
 11 12  1  0  0  0  0
 11 53  1  0  0  0  0
 11 54  1  0  0  0  0
 12 13  2  0  0  0  0
 12 43  1  0  0  0  0
 13 14  1  0  0  0  0
 13 55  1  0  0  0  0
 14 15  2  0  0  0  0
 14 56  1  0  0  0  0
 15 16  1  0  0  0  0
 15 43  1  0  0  0  0
 16 17  1  0  0  0  0
 16 42  2  0  0  0  0
 17 18  2  0  0  0  0
 17 57  1  0  0  0  0
 18 19  1  0  0  0  0
 18 58  1  0  0  0  0
 19 20  1  0  0  0  0
 19 41  2  0  0  0  0
 20 21  2  0  0  0  0
 21 22  1  0  0  0  0
 21 59  1  0  0  0  0
 22 23  2  0  0  0  0
 23 24  1  0  0  0  0
 23 41  1  0  0  0  0
 24 25  1  0  0  0  0
 24 60  1  0  0  0  0
 25 26  1  0  0  0  0
 25 40  2  0  0  0  0
 26 27  2  0  0  0  0
 26 61  1  0  0  0  0
 27 28  1  0  0  0  0
 27 62  1  0  0  0  0
 28 29  1  0  0  0  0
 28 38  2  0  0  0  0
 29 30  1  0  0  0  0
 30 31  1  0  0  0  0
 30 63  1  0  0  0  0
 30 64  1  0  0  0  0
 31 32  1  0  0  0  0
 31 37  2  0  0  0  0
 32 33  2  0  0  0  0
 32 65  1  0  0  0  0
 33 34  1  0  0  0  0
 33 66  1  0  0  0  0
 34 35  2  0  0  0  0
 34 67  1  0  0  0  0
 35 36  1  0  0  0  0
 35 37  1  0  0  0  0
 37 68  1  0  0  0  0
 38 39  1  0  0  0  0
 38 40  1  0  0  0  0
 40 69  1  0  0  0  0
 41 42  1  0  0  0  0
 42 70  1  0  0  0  0
M  END
