REMARK  Name = 
REMARK  7 active torsions:
REMARK  status: ('A' for Active; 'I' for Inactive)
REMARK    1  A    between atoms: C_1  and  O_2
REMARK    2  A    between atoms: O_2  and  C_3
REMARK    3  A    between atoms: C_5  and  C_6
REMARK    4  A    between atoms: C_9  and  C_10
REMARK    5  A    between atoms: C_10  and  O_12
REMARK    6  A    between atoms: C_21  and  C_22
REMARK    7  A    between atoms: C_22  and  O_23
REMARK                            x       y       z     vdW  Elec       q    Type
REMARK                         _______ _______ _______ _____ _____    ______ ____
ROOT
ATOM      1  C   UNL     1      -0.482  -3.719   4.544  0.00  0.00    +0.000 A 
ATOM      2  C   UNL     1      -1.721  -4.275   4.271  0.00  0.00    +0.000 A 
ATOM      3  C   UNL     1      -2.578  -4.348   5.394  0.00  0.00    +0.000 A 
ATOM      4  C   UNL     1      -3.985  -4.536   5.153  0.00  0.00    +0.000 A 
ATOM      5  N   UNL     1      -4.871  -4.614   6.225  0.00  0.00    +0.000 NA
ATOM      6  N   UNL     1      -2.992  -4.640   7.711  0.00  0.00    +0.000 N 
ATOM      7  C   UNL     1      -2.176  -4.256   6.649  0.00  0.00    +0.000 A 
ATOM      8  C   UNL     1      -0.917  -3.763   6.850  0.00  0.00    +0.000 A 
ATOM      9  C   UNL     1      -0.067  -3.542   5.793  0.00  0.00    +0.000 A 
ATOM     10 CL   UNL     1       1.604  -3.014   6.100  0.00  0.00    +0.000 Cl
ATOM     11  H   UNL     1      -2.654  -4.557   8.670  0.00  0.00    +0.000 HD
ENDROOT
BRANCH   1  14
ATOM     12  C   UNL     1       0.830  -1.586   1.790  0.00  0.00    +0.000 A 
ATOM     13  C   UNL     1      -0.128  -2.256   2.532  0.00  0.00    +0.000 A 
ATOM     14  C   UNL     1       0.405  -3.228   3.412  0.00  0.00    +0.000 A 
ATOM     15  C   UNL     1       1.619  -3.738   3.317  0.00  0.00    +0.000 A 
ATOM     16  C   UNL     1       2.499  -3.068   2.514  0.00  0.00    +0.000 A 
ATOM     17  C   UNL     1       2.082  -2.024   1.724  0.00  0.00    +0.000 A 
BRANCH  17  18
ATOM     18  C   UNL     1       3.061  -1.365   0.766  0.00  0.00    +0.000 C 
ATOM     19  C   UNL     1       2.856  -1.442  -0.757  0.00  0.00    +0.000 C 
ATOM     20  C   UNL     1       4.376  -1.325  -0.959  0.00  0.00    +0.000 C 
ATOM     21  C   UNL     1       4.560  -1.754   0.501  0.00  0.00    +0.000 C 
BRANCH  18  22
ATOM     22  O   UNL     1       3.074  -0.031   1.224  0.00  0.00    +0.000 OA
ATOM     23  H   UNL     1       3.697   0.509   0.657  0.00  0.00    +0.000 HD
ENDBRANCH  18  22
ENDBRANCH  17  18
BRANCH  12  25
ATOM     24  C   UNL     1       0.960  -0.007  -0.091  0.00  0.00    +0.000 C 
ATOM     25  O   UNL     1       0.487  -0.338   1.206  0.00  0.00    +0.000 OA
ENDBRANCH  12  25
ENDBRANCH   1  14
BRANCH   4  26
ATOM     26  C   UNL     1      -4.503  -4.649   3.729  0.00  0.00    +0.000 C 
ATOM     27  O   UNL     1      -5.745  -4.815   3.516  0.00  0.00    +0.000 OA
BRANCH  26  28
ATOM     28  O   UNL     1      -3.600  -4.569   2.636  0.00  0.00    +0.000 OA
ATOM     29  H   UNL     1      -3.941  -4.644   1.699  0.00  0.00    +0.000 HD
ENDBRANCH  26  28
ENDBRANCH   4  26
TORSDOF 6
