REMARK  Name = 
REMARK  6 active torsions:
REMARK  status: ('A' for Active; 'I' for Inactive)
REMARK    1  A    between atoms: C_1  and  C_2
REMARK    2  A    between atoms: C_2  and  N_3
REMARK    3  A    between atoms: C_2  and  C_18
REMARK    4  A    between atoms: C_4  and  C_6
REMARK    5  A    between atoms: C_12  and  C_13
REMARK    6  A    between atoms: C_22  and  C_23
REMARK                            x       y       z     vdW  Elec       q    Type
REMARK                         _______ _______ _______ _____ _____    ______ ____
ROOT
ATOM      1  N   UNL     1       0.949   2.507   0.365  0.00  0.00    +0.000 N 
ATOM      2  C   UNL     1      -0.006   3.544  -0.051  0.00  0.00    +0.000 C 
ATOM      3  O   UNL     1       0.417   4.656  -0.497  0.00  0.00    +0.000 OA
ATOM      4  H   UNL     1       1.952   2.680   0.296  0.00  0.00    +0.000 HD
ENDROOT
BRANCH   2   5
ATOM      5  C   UNL     1      -1.501   3.286   0.053  0.00  0.00    +0.000 A 
ATOM      6  C   UNL     1      -2.449   3.566  -0.896  0.00  0.00    +0.000 A 
ATOM      7  N   UNL     1      -3.676   3.211  -0.426  0.00  0.00    +0.000 N 
ATOM      8  C   UNL     1      -3.579   2.666   0.837  0.00  0.00    +0.000 A 
ATOM      9  N   UNL     1      -4.466   2.170   1.698  0.00  0.00    +0.000 NA
ATOM     10  C   UNL     1      -4.076   1.691   2.871  0.00  0.00    +0.000 A 
ATOM     11  C   UNL     1      -2.720   1.715   3.238  0.00  0.00    +0.000 A 
ATOM     12  N   UNL     1      -1.833   2.209   2.375  0.00  0.00    +0.000 NA
ATOM     13  C   UNL     1      -2.218   2.685   1.193  0.00  0.00    +0.000 A 
ATOM     14  H   UNL     1      -4.549   3.331  -0.939  0.00  0.00    +0.000 HD
BRANCH  11  15
ATOM     15  C   UNL     1      -2.274   1.190   4.593  0.00  0.00    +0.000 C 
ATOM     16  C   UNL     1      -3.313   0.860   5.666  0.00  0.00    +0.000 C 
ATOM     17  C   UNL     1      -2.527  -0.266   4.989  0.00  0.00    +0.000 C 
ENDBRANCH  11  15
ENDBRANCH   2   5
BRANCH   1  19
ATOM     18  C   UNL     1       0.966   0.094  -0.004  0.00  0.00    +0.000 C 
ATOM     19  C   UNL     1       0.459   1.221   0.881  0.00  0.00    +0.000 C 
BRANCH  19  20
ATOM     20  C   UNL     1      -1.061   1.221   0.881  0.00  0.00    +0.000 C 
ATOM     21  O   UNL     1      -1.697   1.065   1.970  0.00  0.00    +0.000 OA
ATOM     22  N   UNL     1      -1.796   1.401  -0.379  0.00  0.00    +0.000 N 
ATOM     23  C   UNL     1      -3.017   2.208  -0.853  0.00  0.00    +0.000 C 
ATOM     24  C   UNL     1      -3.210   1.133  -1.934  0.00  0.00    +0.000 C 
ATOM     25  C   UNL     1      -1.704   0.848  -1.813  0.00  0.00    +0.000 C 
BRANCH  24  26
ATOM     26  C   UNL     1      -3.863   1.446  -3.271  0.00  0.00    +0.000 C 
ATOM     27  N   UNL     1      -4.405   1.706  -4.379  0.00  0.00    +0.000 NA
ENDBRANCH  24  26
ENDBRANCH  19  20
ENDBRANCH   1  19
TORSDOF 5
