
 OpenBabel03132514253D

 62 66  0  0  0  0  0  0  0  0999 V2000
    0.9202   -0.0127   -0.0590 C   0  0  0  0  0  0  0  0  0  0  0  0
    0.4136    1.4204   -0.0590 C   0  0  0  0  0  0  0  0  0  0  0  0
    0.9202    2.1369   -1.3001 C   0  0  0  0  0  0  0  0  0  0  0  0
    0.4302    1.4440   -2.5003 N   0  0  0  0  0  0  0  0  0  0  0  0
   -0.4149    2.1584   -3.4680 C   0  0  0  0  0  0  0  0  0  0  0  0
   -0.8385    1.5592   -4.5056 O   0  0  0  0  0  0  0  0  0  0  0  0
   -0.7821    3.6136   -3.2274 C   0  0  0  0  0  0  0  0  0  0  0  0
    0.2090    4.4586   -2.8275 C   0  0  0  0  0  0  0  0  0  0  0  0
   -0.0752    5.7440   -2.5772 C   0  0  0  0  0  0  0  0  0  0  0  0
   -1.3424    6.2401   -2.7173 C   0  0  0  0  0  0  0  0  0  0  0  0
   -1.5510    7.5909   -2.4302 N   0  0  0  0  0  0  0  0  0  0  0  0
   -2.7789    8.1465   -2.5420 C   0  0  0  0  0  0  0  0  0  0  0  0
   -2.9597    9.5730   -2.2364 N   0  0  0  0  0  0  0  0  0  0  0  0
   -4.2901   10.1871   -2.3546 C   0  0  0  0  0  0  0  0  0  0  0  0
   -5.3847    9.5991   -1.4765 C   0  0  0  0  0  0  0  0  0  0  0  0
   -5.3623    8.0712   -1.4740 C   0  0  0  0  0  0  0  0  0  0  0  0
   -5.4934    7.5830   -2.9174 C   0  0  0  0  0  0  0  0  0  0  0  0
   -5.4012    6.1611   -3.0416 O   0  0  0  0  0  0  0  0  0  0  0  0
   -4.3914    8.1498   -3.7825 C   0  0  0  0  0  0  0  0  0  0  0  0
   -4.3717    9.6698   -3.7757 C   0  0  0  0  0  0  0  0  0  0  0  0
   -3.8808    7.3812   -2.9450 C   0  0  0  0  0  0  0  0  0  0  0  0
   -5.1550    7.7680   -3.1073 N   0  0  0  0  0  0  0  0  0  0  0  0
   -5.8729    6.7469   -3.4929 C   0  0  0  0  0  0  0  0  0  0  0  0
   -5.0565    5.6188   -3.5985 C   0  0  0  0  0  0  0  0  0  0  0  0
   -3.7599    5.9920   -3.2514 N   0  0  0  0  0  0  0  0  0  0  0  0
   -2.4209    5.3975   -3.1268 C   0  0  0  0  0  0  0  0  0  0  0  0
   -2.0971    4.0661   -3.3822 C   0  0  0  0  0  0  0  0  0  0  0  0
    0.4136    3.5700   -1.3001 C   0  0  0  0  0  0  0  0  0  0  0  0
   -0.9550    3.8332   -1.5865 C   0  0  0  0  0  0  0  0  0  0  0  0
   -1.3584    5.1474   -1.8739 C   0  0  0  0  0  0  0  0  0  0  0  0
   -0.5629    6.1434   -1.6158 C   0  0  0  0  0  0  0  0  0  0  0  0
    0.6933    5.9084   -1.0411 C   0  0  0  0  0  0  0  0  0  0  0  0
    1.2236    4.5953   -1.0310 C   0  0  0  0  0  0  0  0  0  0  0  0
    0.5636   -0.5171   -0.9326 H   0  0  0  0  0  0  0  0  0  0  0  0
    0.5636   -0.5170    0.8147 H   0  0  0  0  0  0  0  0  0  0  0  0
    1.9902   -0.0127   -0.0590 H   0  0  0  0  0  0  0  0  0  0  0  0
   -0.6564    1.4204   -0.0590 H   0  0  0  0  0  0  0  0  0  0  0  0
    0.7702    1.9248    0.8146 H   0  0  0  0  0  0  0  0  0  0  0  0
    1.9902    2.1369   -1.3001 H   0  0  0  0  0  0  0  0  0  0  0  0
    0.6766    0.4674   -2.6617 H   0  0  0  0  0  0  0  0  0  0  0  0
    1.2098    4.0975   -2.7136 H   0  0  0  0  0  0  0  0  0  0  0  0
    0.7090    6.3991   -2.2598 H   0  0  0  0  0  0  0  0  0  0  0  0
   -2.1621   10.1367   -1.9423 H   0  0  0  0  0  0  0  0  0  0  0  0
   -4.4088   11.2200   -2.1015 H   0  0  0  0  0  0  0  0  0  0  0  0
   -6.3280    9.9137   -1.8715 H   0  0  0  0  0  0  0  0  0  0  0  0
   -5.2472    9.9476   -0.4742 H   0  0  0  0  0  0  0  0  0  0  0  0
   -6.1707    7.6930   -0.8837 H   0  0  0  0  0  0  0  0  0  0  0  0
   -4.4397    7.7241   -1.0577 H   0  0  0  0  0  0  0  0  0  0  0  0
   -6.4617    7.9133   -3.2307 H   0  0  0  0  0  0  0  0  0  0  0  0
   -4.4944    5.8590   -2.7474 H   0  0  0  0  0  0  0  0  0  0  0  0
   -3.4579    7.8100   -3.3851 H   0  0  0  0  0  0  0  0  0  0  0  0
   -4.5361    7.8126   -4.7877 H   0  0  0  0  0  0  0  0  0  0  0  0
   -5.2716   10.0319   -4.2273 H   0  0  0  0  0  0  0  0  0  0  0  0
   -3.5214   10.0143   -4.3264 H   0  0  0  0  0  0  0  0  0  0  0  0
   -6.9231    6.7711   -3.6961 H   0  0  0  0  0  0  0  0  0  0  0  0
   -5.3714    4.6399   -3.8942 H   0  0  0  0  0  0  0  0  0  0  0  0
   -2.8594    3.3853   -3.6988 H   0  0  0  0  0  0  0  0  0  0  0  0
   -1.6702    3.0373   -1.5830 H   0  0  0  0  0  0  0  0  0  0  0  0
   -2.3206    5.3293   -2.3053 H   0  0  0  0  0  0  0  0  0  0  0  0
   -0.8680    7.1436   -1.8427 H   0  0  0  0  0  0  0  0  0  0  0  0
    1.2485    6.7163   -0.6124 H   0  0  0  0  0  0  0  0  0  0  0  0
    2.2573    4.4283   -0.8110 H   0  0  0  0  0  0  0  0  0  0  0  0
  1  2  1  0  0  0  0
  1 34  1  0  0  0  0
  1 35  1  0  0  0  0
  1 36  1  0  0  0  0
  2  3  1  0  0  0  0
  2 37  1  0  0  0  0
  2 38  1  0  0  0  0
  3  4  1  0  0  0  0
  3 28  1  0  0  0  0
  3 39  1  0  0  0  0
  4  5  1  0  0  0  0
  4 40  1  0  0  0  0
  5  6  2  0  0  0  0
  5  7  1  0  0  0  0
  7  8  1  0  0  0  0
  7 27  2  0  0  0  0
  8  9  2  0  0  0  0
  8 41  1  0  0  0  0
  9 10  1  0  0  0  0
  9 42  1  0  0  0  0
 10 11  1  0  0  0  0
 10 26  2  0  0  0  0
 11 12  2  0  0  0  0
 12 13  1  0  0  0  0
 12 21  1  0  0  0  0
 13 14  1  0  0  0  0
 13 43  1  0  0  0  0
 14 15  1  0  0  0  0
 14 20  1  0  0  0  0
 14 44  1  0  0  0  0
 15 16  1  0  0  0  0
 15 45  1  0  0  0  0
 15 46  1  0  0  0  0
 16 17  1  0  0  0  0
 16 47  1  0  0  0  0
 16 48  1  0  0  0  0
 17 18  1  0  0  0  0
 17 19  1  0  0  0  0
 17 49  1  0  0  0  0
 18 50  1  0  0  0  0
 19 20  1  0  0  0  0
 19 51  1  0  0  0  0
 19 52  1  0  0  0  0
 20 53  1  0  0  0  0
 20 54  1  0  0  0  0
 21 22  2  0  0  0  0
 21 25  1  0  0  0  0
 22 23  1  0  0  0  0
 23 24  2  0  0  0  0
 23 55  1  0  0  0  0
 24 25  1  0  0  0  0
 24 56  1  0  0  0  0
 25 26  1  0  0  0  0
 26 27  1  0  0  0  0
 27 57  1  0  0  0  0
 28 29  1  0  0  0  0
 28 33  2  0  0  0  0
 29 30  2  0  0  0  0
 29 58  1  0  0  0  0
 30 31  1  0  0  0  0
 30 59  1  0  0  0  0
 31 32  2  0  0  0  0
 31 60  1  0  0  0  0
 32 33  1  0  0  0  0
 32 61  1  0  0  0  0
 33 62  1  0  0  0  0
M  END
