REMARK  Name = 
REMARK  5 active torsions:
REMARK  status: ('A' for Active; 'I' for Inactive)
REMARK    1  A    between atoms: C_7  and  C_8
REMARK    2  A    between atoms: N_13  and  C_14
REMARK    3  A    between atoms: C_14  and  C_15
REMARK    4  A    between atoms: C_15  and  C_16
REMARK    5  A    between atoms: C_16  and  N_17
REMARK                            x       y       z     vdW  Elec       q    Type
REMARK                         _______ _______ _______ _____ _____    ______ ____
ROOT
ATOM      1  C   UNL     1       2.109  -2.489  -0.003  0.00  0.00    +0.000 A 
ATOM      2  C   UNL     1       1.777  -3.346  -1.047  0.00  0.00    +0.000 A 
ATOM      3  C   UNL     1       2.649  -4.434  -1.273  0.00  0.00    +0.000 A 
ATOM      4  N   UNL     1       3.230  -5.005  -0.142  0.00  0.00    +0.000 NA
ATOM      5  C   UNL     1       3.333  -4.271   0.946  0.00  0.00    +0.000 A 
ATOM      6  N   UNL     1       3.938  -4.847   2.155  0.00  0.00    +0.000 N 
ATOM      7  N   UNL     1       2.874  -2.950   0.964  0.00  0.00    +0.000 NA
ATOM      8  H   UNL     1       4.020  -4.284   3.002  0.00  0.00    +0.000 HD
ENDROOT
BRANCH   1  15
ATOM      9  C   UNL     1      -2.084  -0.707   0.002  0.00  0.00    +0.000 A 
ATOM     10  C   UNL     1      -2.096   0.652  -0.003  0.00  0.00    +0.000 A 
ATOM     11  N   UNL     1      -0.952   1.372   0.002  0.00  0.00    +0.000 NA
ATOM     12  N   UNL     1       0.280   0.715   0.001  0.00  0.00    +0.000 N 
ATOM     13  N   UNL     1       1.564   1.108   0.000  0.00  0.00    +0.000 NA
ATOM     14  C   UNL     1       2.327   0.034   0.000  0.00  0.00    +0.000 A 
ATOM     15  C   UNL     1       1.584  -1.063  -0.001  0.00  0.00    +0.000 A 
ATOM     16  C   UNL     1       0.300  -0.708   0.000  0.00  0.00    +0.000 A 
ATOM     17  C   UNL     1      -0.927  -1.404   0.000  0.00  0.00    +0.000 A 
ENDBRANCH   1  15
BRANCH   6  18
ATOM     18  C   UNL     1       4.423  -6.235   2.146  0.00  0.00    +0.000 C 
BRANCH  18  19
ATOM     19  C   UNL     1       5.910  -6.254   2.455  0.00  0.00    +0.000 C 
BRANCH  19  20
ATOM     20  C   UNL     1       6.151  -5.643   3.826  0.00  0.00    +0.000 C 
BRANCH  20  21
ATOM     21  N   UNL     1       5.429  -6.421   4.843  0.00  0.00    +0.000 NA
ATOM     22  C   UNL     1       5.436  -7.855   4.499  0.00  0.00    +0.000 C 
ATOM     23  C   UNL     1       4.819  -8.046   3.132  0.00  0.00    +0.000 C 
ATOM     24  O   UNL     1       3.490  -7.526   3.094  0.00  0.00    +0.000 OA
ATOM     25  C   UNL     1       3.505  -6.130   3.394  0.00  0.00    +0.000 C 
ATOM     26  C   UNL     1       4.058  -5.876   4.784  0.00  0.00    +0.000 C 
ENDBRANCH  20  21
ENDBRANCH  19  20
ENDBRANCH  18  19
ENDBRANCH   6  18
TORSDOF 5
