
 OpenBabel03132514253D

 60 64  0  0  0  0  0  0  0  0999 V2000
    1.0208    0.0954    0.0216 O   0  0  0  0  0  0  0  0  0  0  0  0
    2.2917    0.0954    0.0216 C   0  0  0  0  0  0  0  0  0  0  0  0
    3.0017   -1.0049    0.5708 O   0  0  0  0  0  0  0  0  0  0  0  0
    4.4217   -1.0049    0.5708 C   0  0  0  0  0  0  0  0  0  0  0  0
    4.9340    0.1777    1.3962 O   0  0  0  0  0  0  0  0  0  0  0  0
    4.5037    0.0339    2.7515 C   0  0  0  0  0  0  0  0  0  0  0  0
    2.9881   -0.0781    2.7209 C   0  0  0  0  0  0  0  0  0  0  0  0
    2.2747    0.7897    3.3152 O   0  0  0  0  0  0  0  0  0  0  0  0
    2.3694   -1.1523    2.0284 O   0  0  0  0  0  0  0  0  0  0  0  0
    4.9911   -1.1444    3.3960 C   0  0  0  0  0  0  0  0  0  0  0  0
    4.5289   -1.1758    4.7383 O   0  0  0  0  0  0  0  0  0  0  0  0
    4.4812   -2.3805    2.6514 C   0  0  0  0  0  0  0  0  0  0  0  0
    3.0630   -2.4224    2.7102 O   0  0  0  0  0  0  0  0  0  0  0  0
    4.9345   -2.3093    1.1899 C   0  0  0  0  0  0  0  0  0  0  0  0
    4.4136   -3.4180    0.4718 O   0  0  0  0  0  0  0  0  0  0  0  0
    3.0517    1.2732   -0.5663 C   0  0  0  0  0  0  0  0  0  0  0  0
    4.1866    1.1340   -1.3314 C   0  0  0  0  0  0  0  0  0  0  0  0
    4.6747    2.3618   -1.6918 N   0  0  0  0  0  0  0  0  0  0  0  0
    3.8864    3.3345   -1.1212 C   0  0  0  0  0  0  0  0  0  0  0  0
    4.0412    4.7247   -1.1457 C   0  0  0  0  0  0  0  0  0  0  0  0
    3.1213    5.4492   -0.4141 C   0  0  0  0  0  0  0  0  0  0  0  0
    3.2650    7.1882   -0.3695 Cl  0  0  0  0  0  0  0  0  0  0  0  0
    2.0837    4.8532    0.3242 C   0  0  0  0  0  0  0  0  0  0  0  0
    1.1181    5.7214    1.1142 C   0  0  0  0  0  0  0  0  0  0  0  0
    0.9969    5.4600    2.4691 C   0  0  0  0  0  0  0  0  0  0  0  0
   -0.1605    6.0201    3.0597 C   0  0  0  0  0  0  0  0  0  0  0  0
   -0.8808    6.9886    2.5239 C   0  0  0  0  0  0  0  0  0  0  0  0
   -1.8944    7.7767    3.3375 C   0  0  0  0  0  0  0  0  0  0  0  0
   -3.1786    7.6207    2.7745 O   0  0  0  0  0  0  0  0  0  0  0  0
   -1.5381    9.2605    3.5367 C   0  0  0  0  0  0  0  0  0  0  0  0
   -2.2067    9.2265    4.9218 C   0  0  0  0  0  0  0  0  0  0  0  0
   -2.0851    7.6980    4.8950 C   0  0  0  0  0  0  0  0  0  0  0  0
   -0.6659    7.2442    1.1981 C   0  0  0  0  0  0  0  0  0  0  0  0
    0.3633    6.6377    0.5193 C   0  0  0  0  0  0  0  0  0  0  0  0
    1.9409    3.4748    0.3321 C   0  0  0  0  0  0  0  0  0  0  0  0
    2.8449    2.6893   -0.4052 C   0  0  0  0  0  0  0  0  0  0  0  0
    4.7745   -0.9210   -0.4359 H   0  0  0  0  0  0  0  0  0  0  0  0
    4.8440    0.8845    3.3042 H   0  0  0  0  0  0  0  0  0  0  0  0
    1.3723   -1.2260    2.0083 H   0  0  0  0  0  0  0  0  0  0  0  0
    6.0611   -1.1390    3.3876 H   0  0  0  0  0  0  0  0  0  0  0  0
    3.5289   -1.1809    4.7465 H   0  0  0  0  0  0  0  0  0  0  0  0
    4.8795   -3.2628    3.1073 H   0  0  0  0  0  0  0  0  0  0  0  0
    2.6873   -1.5991    2.2849 H   0  0  0  0  0  0  0  0  0  0  0  0
    6.0033   -2.3319    1.1444 H   0  0  0  0  0  0  0  0  0  0  0  0
    3.4145   -3.4012    0.5115 H   0  0  0  0  0  0  0  0  0  0  0  0
    4.6262    0.1980   -1.6063 H   0  0  0  0  0  0  0  0  0  0  0  0
    5.4879    2.5277   -2.2848 H   0  0  0  0  0  0  0  0  0  0  0  0
    4.8256    5.1982   -1.6983 H   0  0  0  0  0  0  0  0  0  0  0  0
    1.7136    4.8866    3.0191 H   0  0  0  0  0  0  0  0  0  0  0  0
   -0.4738    5.6318    4.0063 H   0  0  0  0  0  0  0  0  0  0  0  0
   -3.8433    8.1401    3.3115 H   0  0  0  0  0  0  0  0  0  0  0  0
   -0.5283    9.5970    3.4280 H   0  0  0  0  0  0  0  0  0  0  0  0
   -2.0089    9.9214    2.8392 H   0  0  0  0  0  0  0  0  0  0  0  0
   -3.1474    9.7058    5.0963 H   0  0  0  0  0  0  0  0  0  0  0  0
   -1.6435    9.7022    5.6973 H   0  0  0  0  0  0  0  0  0  0  0  0
   -2.8396    7.0756    5.3289 H   0  0  0  0  0  0  0  0  0  0  0  0
   -1.2390    7.3128    5.4248 H   0  0  0  0  0  0  0  0  0  0  0  0
   -1.3084    7.9264    0.6817 H   0  0  0  0  0  0  0  0  0  0  0  0
    0.5584    6.9061   -0.4980 H   0  0  0  0  0  0  0  0  0  0  0  0
    1.1535    3.0144    0.8916 H   0  0  0  0  0  0  0  0  0  0  0  0
  1  2  2  0  0  0  0
  2  3  1  0  0  0  0
  2 16  1  0  0  0  0
  3  4  1  0  0  0  0
  4  5  1  0  0  0  0
  4 14  1  0  0  0  0
  4 37  1  0  0  0  0
  5  6  1  0  0  0  0
  6  7  1  0  0  0  0
  6 10  1  0  0  0  0
  6 38  1  0  0  0  0
  7  8  2  0  0  0  0
  7  9  1  0  0  0  0
  9 39  1  0  0  0  0
 10 11  1  0  0  0  0
 10 12  1  0  0  0  0
 10 40  1  0  0  0  0
 11 41  1  0  0  0  0
 12 13  1  0  0  0  0
 12 14  1  0  0  0  0
 12 42  1  0  0  0  0
 13 43  1  0  0  0  0
 14 15  1  0  0  0  0
 14 44  1  0  0  0  0
 15 45  1  0  0  0  0
 16 17  2  0  0  0  0
 16 36  1  0  0  0  0
 17 18  1  0  0  0  0
 17 46  1  0  0  0  0
 18 19  1  0  0  0  0
 18 47  1  0  0  0  0
 19 20  1  0  0  0  0
 19 36  2  0  0  0  0
 20 21  2  0  0  0  0
 20 48  1  0  0  0  0
 21 22  1  0  0  0  0
 21 23  1  0  0  0  0
 23 24  1  0  0  0  0
 23 35  2  0  0  0  0
 24 25  1  0  0  0  0
 24 34  2  0  0  0  0
 25 26  2  0  0  0  0
 25 49  1  0  0  0  0
 26 27  1  0  0  0  0
 26 50  1  0  0  0  0
 27 28  1  0  0  0  0
 27 33  2  0  0  0  0
 28 29  1  0  0  0  0
 28 30  1  0  0  0  0
 28 32  1  0  0  0  0
 29 51  1  0  0  0  0
 30 31  1  0  0  0  0
 30 52  1  0  0  0  0
 30 53  1  0  0  0  0
 31 32  1  0  0  0  0
 31 54  1  0  0  0  0
 31 55  1  0  0  0  0
 32 56  1  0  0  0  0
 32 57  1  0  0  0  0
 33 34  1  0  0  0  0
 33 58  1  0  0  0  0
 34 59  1  0  0  0  0
 35 36  1  0  0  0  0
 35 60  1  0  0  0  0
M  END
