REMARK  Name = 
REMARK  6 active torsions:
REMARK  status: ('A' for Active; 'I' for Inactive)
REMARK    1  A    between atoms: C_1  and  O_2
REMARK    2  A    between atoms: O_2  and  C_3
REMARK    3  A    between atoms: C_6  and  C_7
REMARK    4  A    between atoms: C_14  and  C_15
REMARK    5  A    between atoms: C_17  and  C_18
REMARK    6  A    between atoms: C_20  and  C_21
REMARK                            x       y       z     vdW  Elec       q    Type
REMARK                         _______ _______ _______ _____ _____    ______ ____
ROOT
ATOM      1  C   UNL     1       1.913  -5.137   3.416  0.00  0.00    +0.000 A 
ATOM      2  C   UNL     1       2.930  -5.166   4.362  0.00  0.00    +0.000 A 
ATOM      3  C   UNL     1       3.456  -6.361   4.829  0.00  0.00    +0.000 A 
ATOM      4  C   UNL     1       2.926  -7.569   4.388  0.00  0.00    +0.000 A 
ATOM      5  C   UNL     1       1.904  -7.514   3.469  0.00  0.00    +0.000 A 
ATOM      6  C   UNL     1       1.392  -6.331   2.934  0.00  0.00    +0.000 A 
ATOM      7  C   UNL     1       0.335  -6.697   1.991  0.00  0.00    +0.000 C 
ATOM      8  C   UNL     1      -0.439  -5.996   1.144  0.00  0.00    +0.000 C 
ATOM      9  C   UNL     1       0.254  -8.188   2.057  0.00  0.00    +0.000 C 
ATOM     10  O   UNL     1      -0.507  -8.936   1.441  0.00  0.00    +0.000 OA
ATOM     11  N   UNL     1       1.204  -8.600   2.931  0.00  0.00    +0.000 N 
ATOM     12  H   UNL     1       1.386  -9.575   3.167  0.00  0.00    +0.000 HD
ENDROOT
BRANCH   8  13
ATOM     13  C   UNL     1      -0.286  -4.487   1.046  0.00  0.00    +0.000 A 
ATOM     14  N   UNL     1       0.844  -3.793   0.686  0.00  0.00    +0.000 N 
ATOM     15  C   UNL     1       0.606  -2.451   0.710  0.00  0.00    +0.000 A 
ATOM     16  C   UNL     1       1.678  -1.465   0.394  0.00  0.00    +0.000 C 
ATOM     17  C   UNL     1      -0.707  -2.272   1.069  0.00  0.00    +0.000 A 
ATOM     18  C   UNL     1      -1.276  -3.569   1.295  0.00  0.00    +0.000 A 
ATOM     19  C   UNL     1      -2.704  -3.854   1.686  0.00  0.00    +0.000 C 
ATOM     20  H   UNL     1       1.736  -4.221   0.437  0.00  0.00    +0.000 HD
ENDBRANCH   8  13
BRANCH   1  24
ATOM     21  C   UNL     1       0.787  -1.396   1.958  0.00  0.00    +0.000 A 
ATOM     22  N   UNL     1      -0.185  -2.133   2.511  0.00  0.00    +0.000 NA
ATOM     23  C   UNL     1       0.224  -3.329   2.958  0.00  0.00    +0.000 A 
ATOM     24  C   UNL     1       1.509  -3.767   2.894  0.00  0.00    +0.000 A 
ATOM     25  C   UNL     1       2.425  -2.908   2.334  0.00  0.00    +0.000 A 
ATOM     26  N   UNL     1       2.088  -1.724   1.840  0.00  0.00    +0.000 NA
BRANCH  21  28
ATOM     27  C   UNL     1       0.917   0.048  -0.029  0.00  0.00    +0.000 C 
ATOM     28  O   UNL     1       0.444  -0.192   1.288  0.00  0.00    +0.000 OA
ENDBRANCH  21  28
ENDBRANCH   1  24
TORSDOF 3
