
 OpenBabel03132514253D

 69 72  0  0  0  0  0  0  0  0999 V2000
    0.9803    0.0719    0.0667 C   0  0  0  0  0  0  0  0  0  0  0  0
    0.4737    0.5543   -1.2828 C   0  0  0  0  0  0  0  0  0  0  0  0
    0.9637   -0.3427   -2.3393 N   0  0  0  0  0  0  0  0  0  0  0  0
    0.4737    0.1238   -3.6444 C   0  0  0  0  0  0  0  0  0  0  0  0
    0.9803    1.5336   -3.9014 C   0  0  0  0  0  0  0  0  0  0  0  0
    2.4337   -0.3427   -2.3393 C   0  0  0  0  0  0  0  0  0  0  0  0
    2.9403    1.0671   -2.5963 C   0  0  0  0  0  0  0  0  0  0  0  0
    2.4503    1.9641   -1.5398 N   0  0  0  0  0  0  0  0  0  0  0  0
    3.4056    2.6872   -0.6880 C   0  0  0  0  0  0  0  0  0  0  0  0
    2.9820    3.4627    0.2254 O   0  0  0  0  0  0  0  0  0  0  0  0
    4.9000    2.5075   -0.8998 C   0  0  0  0  0  0  0  0  0  0  0  0
    5.5540    2.5103   -2.1068 C   0  0  0  0  0  0  0  0  0  0  0  0
    5.0494    2.7127   -3.4938 C   0  0  0  0  0  0  0  0  0  0  0  0
    6.8763    2.2933   -1.8549 N   0  0  0  0  0  0  0  0  0  0  0  0
    7.0942    2.1721   -0.5037 C   0  0  0  0  0  0  0  0  0  0  0  0
    8.4351    1.9356    0.1719 C   0  0  0  0  0  0  0  0  0  0  0  0
    9.4336    2.8228    0.0187 C   0  0  0  0  0  0  0  0  0  0  0  0
    9.2344    4.0824   -0.7597 C   0  0  0  0  0  0  0  0  0  0  0  0
    8.2308    4.4454   -1.3755 O   0  0  0  0  0  0  0  0  0  0  0  0
   10.3825    4.7969   -0.6610 N   0  0  0  0  0  0  0  0  0  0  0  0
   11.3390    4.1184    0.1023 C   0  0  0  0  0  0  0  0  0  0  0  0
   10.8062    2.8988    0.5219 C   0  0  0  0  0  0  0  0  0  0  0  0
   11.6451    2.0470    1.2289 C   0  0  0  0  0  0  0  0  0  0  0  0
   12.9425    2.4496    1.5189 C   0  0  0  0  0  0  0  0  0  0  0  0
   13.4219    3.6942    1.1357 C   0  0  0  0  0  0  0  0  0  0  0  0
   12.6114    4.5487    0.3966 C   0  0  0  0  0  0  0  0  0  0  0  0
   13.1127    5.9062   -0.0683 C   0  0  0  0  0  0  0  0  0  0  0  0
   12.4090    7.0268    0.3801 C   0  0  0  0  0  0  0  0  0  0  0  0
   12.8205    8.2719   -0.0784 C   0  0  0  0  0  0  0  0  0  0  0  0
   13.8925    8.3484   -0.9378 C   0  0  0  0  0  0  0  0  0  0  0  0
   14.5558    7.2783   -1.3868 N   0  0  0  0  0  0  0  0  0  0  0  0
   14.1623    6.0715   -0.9504 C   0  0  0  0  0  0  0  0  0  0  0  0
   14.8520    4.9201   -1.4139 O   0  0  0  0  0  0  0  0  0  0  0  0
   14.4584    3.6300   -0.9698 C   0  0  0  0  0  0  0  0  0  0  0  0
    5.8808    2.3033    0.1257 C   0  0  0  0  0  0  0  0  0  0  0  0
    5.6092    2.2066    1.6057 C   0  0  0  0  0  0  0  0  0  0  0  0
    0.6237   -0.9206    0.2476 H   0  0  0  0  0  0  0  0  0  0  0  0
    0.6237    0.7248    0.8357 H   0  0  0  0  0  0  0  0  0  0  0  0
    2.0503    0.0719    0.0667 H   0  0  0  0  0  0  0  0  0  0  0  0
   -0.5963    0.5543   -1.2828 H   0  0  0  0  0  0  0  0  0  0  0  0
    0.8303    1.5467   -1.4637 H   0  0  0  0  0  0  0  0  0  0  0  0
    0.8303   -0.5291   -4.4134 H   0  0  0  0  0  0  0  0  0  0  0  0
   -0.5963    0.1238   -3.6444 H   0  0  0  0  0  0  0  0  0  0  0  0
    2.0503    1.5336   -3.9014 H   0  0  0  0  0  0  0  0  0  0  0  0
    0.6237    1.8732   -4.8513 H   0  0  0  0  0  0  0  0  0  0  0  0
    0.6237    2.1865   -3.1323 H   0  0  0  0  0  0  0  0  0  0  0  0
    2.7903   -0.6823   -1.3894 H   0  0  0  0  0  0  0  0  0  0  0  0
    2.7903   -0.9956   -3.1084 H   0  0  0  0  0  0  0  0  0  0  0  0
    4.0103    1.0671   -2.5963 H   0  0  0  0  0  0  0  0  0  0  0  0
    2.5837    1.4067   -3.5462 H   0  0  0  0  0  0  0  0  0  0  0  0
    1.4475    2.0847   -1.3977 H   0  0  0  0  0  0  0  0  0  0  0  0
    4.3243    1.9599   -3.7229 H   0  0  0  0  0  0  0  0  0  0  0  0
    4.5968    3.6791   -3.5712 H   0  0  0  0  0  0  0  0  0  0  0  0
    5.8646    2.6443   -4.1835 H   0  0  0  0  0  0  0  0  0  0  0  0
    7.6018    2.2298   -2.5691 H   0  0  0  0  0  0  0  0  0  0  0  0
    8.5846    1.0615    0.7705 H   0  0  0  0  0  0  0  0  0  0  0  0
   10.5300    5.7114   -1.0881 H   0  0  0  0  0  0  0  0  0  0  0  0
   11.2946    1.0877    1.5478 H   0  0  0  0  0  0  0  0  0  0  0  0
   13.5887    1.7833    2.0513 H   0  0  0  0  0  0  0  0  0  0  0  0
   14.4118    3.9953    1.4081 H   0  0  0  0  0  0  0  0  0  0  0  0
   11.5826    6.9295    1.0527 H   0  0  0  0  0  0  0  0  0  0  0  0
   12.3106    9.1597    0.2325 H   0  0  0  0  0  0  0  0  0  0  0  0
   14.2120    9.3160   -1.2641 H   0  0  0  0  0  0  0  0  0  0  0  0
   14.5509    3.5757    0.0948 H   0  0  0  0  0  0  0  0  0  0  0  0
   13.4409    3.4517   -1.2490 H   0  0  0  0  0  0  0  0  0  0  0  0
   15.0867    2.8905   -1.4207 H   0  0  0  0  0  0  0  0  0  0  0  0
    5.1536    3.1135    1.9447 H   0  0  0  0  0  0  0  0  0  0  0  0
    4.9508    1.3845    1.7945 H   0  0  0  0  0  0  0  0  0  0  0  0
    6.5302    2.0532    2.1282 H   0  0  0  0  0  0  0  0  0  0  0  0
  1  2  1  0  0  0  0
  1 37  1  0  0  0  0
  1 38  1  0  0  0  0
  1 39  1  0  0  0  0
  2  3  1  0  0  0  0
  2 40  1  0  0  0  0
  2 41  1  0  0  0  0
  3  4  1  0  0  0  0
  3  6  1  0  0  0  0
  4  5  1  0  0  0  0
  4 42  1  0  0  0  0
  4 43  1  0  0  0  0
  5 44  1  0  0  0  0
  5 45  1  0  0  0  0
  5 46  1  0  0  0  0
  6  7  1  0  0  0  0
  6 47  1  0  0  0  0
  6 48  1  0  0  0  0
  7  8  1  0  0  0  0
  7 49  1  0  0  0  0
  7 50  1  0  0  0  0
  8  9  1  0  0  0  0
  8 51  1  0  0  0  0
  9 10  2  0  0  0  0
  9 11  1  0  0  0  0
 11 12  2  0  0  0  0
 11 35  1  0  0  0  0
 12 13  1  0  0  0  0
 12 14  1  0  0  0  0
 13 52  1  0  0  0  0
 13 53  1  0  0  0  0
 13 54  1  0  0  0  0
 14 15  1  0  0  0  0
 14 55  1  0  0  0  0
 15 16  1  0  0  0  0
 15 35  2  0  0  0  0
 16 17  2  0  0  0  0
 16 56  1  0  0  0  0
 17 18  1  0  0  0  0
 17 22  1  0  0  0  0
 18 19  2  0  0  0  0
 18 20  1  0  0  0  0
 20 21  1  0  0  0  0
 20 57  1  0  0  0  0
 21 22  1  0  0  0  0
 21 26  2  0  0  0  0
 22 23  2  0  0  0  0
 23 24  1  0  0  0  0
 23 58  1  0  0  0  0
 24 25  2  0  0  0  0
 24 59  1  0  0  0  0
 25 26  1  0  0  0  0
 25 60  1  0  0  0  0
 26 27  1  0  0  0  0
 27 28  1  0  0  0  0
 27 32  2  0  0  0  0
 28 29  2  0  0  0  0
 28 61  1  0  0  0  0
 29 30  1  0  0  0  0
 29 62  1  0  0  0  0
 30 31  2  0  0  0  0
 30 63  1  0  0  0  0
 31 32  1  0  0  0  0
 32 33  1  0  0  0  0
 33 34  1  0  0  0  0
 34 64  1  0  0  0  0
 34 65  1  0  0  0  0
 34 66  1  0  0  0  0
 35 36  1  0  0  0  0
 36 67  1  0  0  0  0
 36 68  1  0  0  0  0
 36 69  1  0  0  0  0
M  END
