
 OpenBabel03132514253D

 62 68  0  0  0  0  0  0  0  0999 V2000
    1.0170   -0.0229   -0.0958 O   0  0  0  0  0  0  0  0  0  0  0  0
    0.5437   -1.1576    0.6147 C   0  0  0  0  0  0  0  0  0  0  0  0
    1.3852   -1.6060    1.5601 C   0  0  0  0  0  0  0  0  0  0  0  0
    2.2774   -2.6028    0.9882 O   0  0  0  0  0  0  0  0  0  0  0  0
    1.5592   -3.1739   -0.2494 C   0  0  0  0  0  0  0  0  0  0  0  0
    1.0397   -4.5599    0.0710 C   0  0  0  0  0  0  0  0  0  0  0  0
    1.9581   -5.2688    0.8899 O   0  0  0  0  0  0  0  0  0  0  0  0
    2.3241   -4.7499    2.1600 C   0  0  0  0  0  0  0  0  0  0  0  0
    1.5151   -4.5083    3.1497 N   0  0  0  0  0  0  0  0  0  0  0  0
    2.2771   -3.8310    4.1977 C   0  0  0  0  0  0  0  0  0  0  0  0
    1.9524   -3.3363    5.4644 N   0  0  0  0  0  0  0  0  0  0  0  0
    2.9284   -2.7325    6.2321 C   0  0  0  0  0  0  0  0  0  0  0  0
    2.5828   -2.1997    7.6130 C   0  0  0  0  0  0  0  0  0  0  0  0
    2.2245   -3.0481    8.6415 C   0  0  0  0  0  0  0  0  0  0  0  0
    2.0476   -2.5859    9.8693 C   0  0  0  0  0  0  0  0  0  0  0  0
    2.2115   -1.3058   10.1582 C   0  0  0  0  0  0  0  0  0  0  0  0
    2.0034   -0.8252   11.5851 C   0  0  0  0  0  0  0  0  0  0  0  0
    2.8373   -1.2442   12.6024 C   0  0  0  0  0  0  0  0  0  0  0  0
    2.7194   -0.7450   13.8228 C   0  0  0  0  0  0  0  0  0  0  0  0
    1.8103    0.1710   14.1120 C   0  0  0  0  0  0  0  0  0  0  0  0
    1.7194    0.7183   15.5271 C   0  0  0  0  0  0  0  0  0  0  0  0
    1.4328   -0.3809   16.4602 N   0  0  0  0  0  0  0  0  0  0  0  0
    2.2332   -1.4605   16.6345 C   0  0  0  0  0  0  0  0  0  0  0  0
    1.7294   -2.1295   17.7000 C   0  0  0  0  0  0  0  0  0  0  0  0
    0.6834   -1.4690   18.1156 N   0  0  0  0  0  0  0  0  0  0  0  0
    0.5047   -0.4321   17.3763 C   0  0  0  0  0  0  0  0  0  0  0  0
    0.9425    0.6362   13.1430 C   0  0  0  0  0  0  0  0  0  0  0  0
    1.0341    0.1303   11.8546 C   0  0  0  0  0  0  0  0  0  0  0  0
    2.5695   -0.4002    9.1783 C   0  0  0  0  0  0  0  0  0  0  0  0
    2.7572   -0.8492    7.8792 C   0  0  0  0  0  0  0  0  0  0  0  0
    4.2303   -2.6093    5.7462 C   0  0  0  0  0  0  0  0  0  0  0  0
    5.4731   -1.8145    6.7424 Cl  0  0  0  0  0  0  0  0  0  0  0  0
    4.5615   -3.0976    4.5023 C   0  0  0  0  0  0  0  0  0  0  0  0
    3.5923   -3.7094    3.7156 C   0  0  0  0  0  0  0  0  0  0  0  0
    3.6063   -4.2795    2.4590 N   0  0  0  0  0  0  0  0  0  0  0  0
   -0.1543   -4.4002    0.7054 C   0  0  0  0  0  0  0  0  0  0  0  0
   -0.8204   -3.2030    0.2155 O   0  0  0  0  0  0  0  0  0  0  0  0
    0.2830   -2.2922   -0.3554 C   0  0  0  0  0  0  0  0  0  0  0  0
    2.0170   -0.0229   -0.0958 H   0  0  0  0  0  0  0  0  0  0  0  0
   -0.3491   -0.8363    1.1093 H   0  0  0  0  0  0  0  0  0  0  0  0
    1.9626   -0.7883    1.9379 H   0  0  0  0  0  0  0  0  0  0  0  0
    0.8232   -2.0468    2.3568 H   0  0  0  0  0  0  0  0  0  0  0  0
    2.1939   -3.1944   -1.1106 H   0  0  0  0  0  0  0  0  0  0  0  0
    0.9047   -5.1195   -0.8310 H   0  0  0  0  0  0  0  0  0  0  0  0
    2.0883   -4.0908    8.4440 H   0  0  0  0  0  0  0  0  0  0  0  0
    1.7652   -3.2645   10.6469 H   0  0  0  0  0  0  0  0  0  0  0  0
    3.5873   -1.9806   12.4022 H   0  0  0  0  0  0  0  0  0  0  0  0
    3.3755   -1.0911   14.5940 H   0  0  0  0  0  0  0  0  0  0  0  0
    2.6485    1.1780   15.7922 H   0  0  0  0  0  0  0  0  0  0  0  0
    0.9348    1.4440   15.5791 H   0  0  0  0  0  0  0  0  0  0  0  0
    3.0882   -1.7297   16.0502 H   0  0  0  0  0  0  0  0  0  0  0  0
    2.1177   -3.0326   18.1225 H   0  0  0  0  0  0  0  0  0  0  0  0
   -0.2848    0.2804   17.4942 H   0  0  0  0  0  0  0  0  0  0  0  0
    0.2091    1.3774   13.3832 H   0  0  0  0  0  0  0  0  0  0  0  0
    0.3719    0.4694   11.0856 H   0  0  0  0  0  0  0  0  0  0  0  0
    2.7004    0.6343    9.4182 H   0  0  0  0  0  0  0  0  0  0  0  0
    3.0304   -0.1691    7.0996 H   0  0  0  0  0  0  0  0  0  0  0  0
    5.5646   -3.0062    4.1411 H   0  0  0  0  0  0  0  0  0  0  0  0
    4.4199   -4.3468    1.8476 H   0  0  0  0  0  0  0  0  0  0  0  0
    0.0164   -4.3023    1.7572 H   0  0  0  0  0  0  0  0  0  0  0  0
   -0.7730   -5.2525    0.5167 H   0  0  0  0  0  0  0  0  0  0  0  0
    0.0337   -1.9229   -1.3282 H   0  0  0  0  0  0  0  0  0  0  0  0
  1  2  1  0  0  0  0
  1 39  1  0  0  0  0
  2  3  1  0  0  0  0
  2 38  1  0  0  0  0
  2 40  1  0  0  0  0
  3  4  1  0  0  0  0
  3 41  1  0  0  0  0
  3 42  1  0  0  0  0
  4  5  1  0  0  0  0
  5  6  1  0  0  0  0
  5 38  1  0  0  0  0
  5 43  1  0  0  0  0
  6  7  1  0  0  0  0
  6 36  1  0  0  0  0
  6 44  1  0  0  0  0
  7  8  1  0  0  0  0
  8  9  2  0  0  0  0
  8 35  1  0  0  0  0
  9 10  1  0  0  0  0
 10 11  1  0  0  0  0
 10 34  2  0  0  0  0
 11 12  2  0  0  0  0
 12 13  1  0  0  0  0
 12 31  1  0  0  0  0
 13 14  1  0  0  0  0
 13 30  2  0  0  0  0
 14 15  2  0  0  0  0
 14 45  1  0  0  0  0
 15 16  1  0  0  0  0
 15 46  1  0  0  0  0
 16 17  1  0  0  0  0
 16 29  2  0  0  0  0
 17 18  1  0  0  0  0
 17 28  2  0  0  0  0
 18 19  2  0  0  0  0
 18 47  1  0  0  0  0
 19 20  1  0  0  0  0
 19 48  1  0  0  0  0
 20 21  1  0  0  0  0
 20 27  2  0  0  0  0
 21 22  1  0  0  0  0
 21 49  1  0  0  0  0
 21 50  1  0  0  0  0
 22 23  1  0  0  0  0
 22 26  1  0  0  0  0
 23 24  2  0  0  0  0
 23 51  1  0  0  0  0
 24 25  1  0  0  0  0
 24 52  1  0  0  0  0
 25 26  2  0  0  0  0
 26 53  1  0  0  0  0
 27 28  1  0  0  0  0
 27 54  1  0  0  0  0
 28 55  1  0  0  0  0
 29 30  1  0  0  0  0
 29 56  1  0  0  0  0
 30 57  1  0  0  0  0
 31 32  1  0  0  0  0
 31 33  2  0  0  0  0
 33 34  1  0  0  0  0
 33 58  1  0  0  0  0
 34 35  1  0  0  0  0
 35 59  1  0  0  0  0
 36 37  1  0  0  0  0
 36 60  1  0  0  0  0
 36 61  1  0  0  0  0
 37 38  1  0  0  0  0
 38 62  1  0  0  0  0
M  END
