
 OpenBabel03132514253D

 55 58  0  0  0  0  0  0  0  0999 V2000
    1.0529    0.0095    0.0843 C   0  0  0  0  0  0  0  0  0  0  0  0
    0.5463   -1.4236    0.0891 C   0  0  0  0  0  0  0  0  0  0  0  0
    1.0529   -2.1360    1.3326 C   0  0  0  0  0  0  0  0  0  0  0  0
   -0.8737   -1.4236    0.0891 O   0  0  0  0  0  0  0  0  0  0  0  0
    1.0529   -2.1443   -1.1495 C   0  0  0  0  0  0  0  0  0  0  0  0
    0.6368   -3.4568   -1.3005 C   0  0  0  0  0  0  0  0  0  0  0  0
    1.2473   -4.1307   -2.3846 C   0  0  0  0  0  0  0  0  0  0  0  0
    1.8650   -3.5318   -3.3865 C   0  0  0  0  0  0  0  0  0  0  0  0
    2.1981   -4.2656   -4.6753 C   0  0  0  0  0  0  0  0  0  0  0  0
    1.1190   -4.6639   -5.4469 C   0  0  0  0  0  0  0  0  0  0  0  0
    1.4728   -5.4696   -6.5549 C   0  0  0  0  0  0  0  0  0  0  0  0
    0.4661   -6.2192   -7.1587 N   0  0  0  0  0  0  0  0  0  0  0  0
    0.7617   -7.0288   -8.2529 C   0  0  0  0  0  0  0  0  0  0  0  0
   -0.2646   -7.7930   -8.8685 O   0  0  0  0  0  0  0  0  0  0  0  0
    0.0367   -8.6184   -9.9840 C   0  0  0  0  0  0  0  0  0  0  0  0
    1.2836   -9.4299   -9.6248 C   0  0  0  0  0  0  0  0  0  0  0  0
    0.9873  -10.2972   -8.5282 O   0  0  0  0  0  0  0  0  0  0  0  0
   -0.0440  -11.2481   -8.7992 C   0  0  0  0  0  0  0  0  0  0  0  0
   -0.2536  -12.1303   -7.5792 C   0  0  0  0  0  0  0  0  0  0  0  0
   -1.2787  -13.0752   -7.8488 O   0  0  0  0  0  0  0  0  0  0  0  0
   -1.3447  -10.5102   -9.1250 C   0  0  0  0  0  0  0  0  0  0  0  0
   -1.7569   -9.7487   -7.9996 O   0  0  0  0  0  0  0  0  0  0  0  0
   -1.1088   -9.5794  -10.3186 C   0  0  0  0  0  0  0  0  0  0  0  0
    2.9279   -6.1086   -8.3146 N   0  0  0  0  0  0  0  0  0  0  0  0
    2.6911   -5.5603   -7.0563 C   0  0  0  0  0  0  0  0  0  0  0  0
    3.7076   -5.0871   -6.2738 C   0  0  0  0  0  0  0  0  0  0  0  0
    3.4448   -4.4041   -5.1109 C   0  0  0  0  0  0  0  0  0  0  0  0
    4.7879   -3.6984   -4.1799 Cl  0  0  0  0  0  0  0  0  0  0  0  0
    2.1887   -2.2163   -3.2022 C   0  0  0  0  0  0  0  0  0  0  0  0
    1.7389   -1.5252   -2.1031 C   0  0  0  0  0  0  0  0  0  0  0  0
    0.6963    0.5168    0.9563 H   0  0  0  0  0  0  0  0  0  0  0  0
    0.6963    0.5109   -0.7910 H   0  0  0  0  0  0  0  0  0  0  0  0
    2.1229    0.0095    0.0843 H   0  0  0  0  0  0  0  0  0  0  0  0
    0.6963   -1.6286    2.2046 H   0  0  0  0  0  0  0  0  0  0  0  0
    0.6963   -3.1448    1.3360 H   0  0  0  0  0  0  0  0  0  0  0  0
    2.1229   -2.1360    1.3326 H   0  0  0  0  0  0  0  0  0  0  0  0
   -1.2071   -0.9495    0.9040 H   0  0  0  0  0  0  0  0  0  0  0  0
   -0.0812   -3.9191   -0.6558 H   0  0  0  0  0  0  0  0  0  0  0  0
    1.2057   -5.1998   -2.3932 H   0  0  0  0  0  0  0  0  0  0  0  0
    0.1094   -4.3874   -5.2252 H   0  0  0  0  0  0  0  0  0  0  0  0
    0.1923   -8.0007  -10.8438 H   0  0  0  0  0  0  0  0  0  0  0  0
    1.5856  -10.0130  -10.4695 H   0  0  0  0  0  0  0  0  0  0  0  0
    2.0752   -8.7646   -9.3496 H   0  0  0  0  0  0  0  0  0  0  0  0
    0.2404  -11.8550   -9.6332 H   0  0  0  0  0  0  0  0  0  0  0  0
    0.6559  -12.6460   -7.3515 H   0  0  0  0  0  0  0  0  0  0  0  0
   -0.5381  -11.5237   -6.7450 H   0  0  0  0  0  0  0  0  0  0  0  0
   -2.1287  -12.5932   -8.0616 H   0  0  0  0  0  0  0  0  0  0  0  0
   -2.1074  -11.2197   -9.3695 H   0  0  0  0  0  0  0  0  0  0  0  0
   -1.0462   -9.0844   -7.7682 H   0  0  0  0  0  0  0  0  0  0  0  0
   -1.9991   -9.0226  -10.5239 H   0  0  0  0  0  0  0  0  0  0  0  0
   -0.8504  -10.1593  -11.1800 H   0  0  0  0  0  0  0  0  0  0  0  0
    3.8804   -6.1652   -8.6753 H   0  0  0  0  0  0  0  0  0  0  0  0
    4.7222   -5.2509   -6.5714 H   0  0  0  0  0  0  0  0  0  0  0  0
    2.8010   -1.7177   -3.9243 H   0  0  0  0  0  0  0  0  0  0  0  0
    1.9433   -0.4786   -2.0148 H   0  0  0  0  0  0  0  0  0  0  0  0
  1  2  1  0  0  0  0
  1 31  1  0  0  0  0
  1 32  1  0  0  0  0
  1 33  1  0  0  0  0
  2  3  1  0  0  0  0
  2  4  1  0  0  0  0
  2  5  1  0  0  0  0
  3 34  1  0  0  0  0
  3 35  1  0  0  0  0
  3 36  1  0  0  0  0
  4 37  1  0  0  0  0
  5  6  1  0  0  0  0
  5 30  2  0  0  0  0
  6  7  2  0  0  0  0
  6 38  1  0  0  0  0
  7  8  1  0  0  0  0
  7 39  1  0  0  0  0
  8  9  1  0  0  0  0
  8 29  2  0  0  0  0
  9 10  1  0  0  0  0
  9 27  2  0  0  0  0
 10 11  2  0  0  0  0
 10 40  1  0  0  0  0
 11 12  1  0  0  0  0
 11 25  1  0  0  0  0
 12 13  2  0  0  0  0
 13 14  1  0  0  0  0
 13 24  1  0  0  0  0
 14 15  1  0  0  0  0
 15 16  1  0  0  0  0
 15 23  1  0  0  0  0
 15 41  1  0  0  0  0
 16 17  1  0  0  0  0
 16 42  1  0  0  0  0
 16 43  1  0  0  0  0
 17 18  1  0  0  0  0
 18 19  1  0  0  0  0
 18 21  1  0  0  0  0
 18 44  1  0  0  0  0
 19 20  1  0  0  0  0
 19 45  1  0  0  0  0
 19 46  1  0  0  0  0
 20 47  1  0  0  0  0
 21 22  1  0  0  0  0
 21 23  1  0  0  0  0
 21 48  1  0  0  0  0
 22 49  1  0  0  0  0
 23 50  1  0  0  0  0
 23 51  1  0  0  0  0
 24 25  1  0  0  0  0
 24 52  1  0  0  0  0
 25 26  2  0  0  0  0
 26 27  1  0  0  0  0
 26 53  1  0  0  0  0
 27 28  1  0  0  0  0
 29 30  1  0  0  0  0
 29 54  1  0  0  0  0
 30 55  1  0  0  0  0
M  END
