REMARK  Name = 
REMARK  7 active torsions:
REMARK  status: ('A' for Active; 'I' for Inactive)
REMARK    1  A    between atoms: O_1  and  C_2
REMARK    2  A    between atoms: C_6  and  O_7
REMARK    3  A    between atoms: O_7  and  C_8
REMARK    4  A    between atoms: C_12  and  C_13
REMARK    5  A    between atoms: C_16  and  C_17
REMARK    6  A    between atoms: C_20  and  C_21
REMARK    7  A    between atoms: C_21  and  N_22
REMARK                            x       y       z     vdW  Elec       q    Type
REMARK                         _______ _______ _______ _____ _____    ______ ____
ROOT
ATOM      1  C   UNL     1       2.324  -4.750   2.160  0.00  0.00    +0.000 A 
ATOM      2  N   UNL     1       1.515  -4.508   3.150  0.00  0.00    +0.000 NA
ATOM      3  C   UNL     1       2.277  -3.831   4.198  0.00  0.00    +0.000 A 
ATOM      4  N   UNL     1       1.952  -3.336   5.464  0.00  0.00    +0.000 NA
ATOM      5  C   UNL     1       2.928  -2.732   6.232  0.00  0.00    +0.000 A 
ATOM      6  C   UNL     1       4.230  -2.609   5.746  0.00  0.00    +0.000 A 
ATOM      7 CL   UNL     1       5.473  -1.815   6.742  0.00  0.00    +0.000 Cl
ATOM      8  C   UNL     1       4.561  -3.098   4.502  0.00  0.00    +0.000 A 
ATOM      9  C   UNL     1       3.592  -3.709   3.716  0.00  0.00    +0.000 A 
ATOM     10  N   UNL     1       3.606  -4.279   2.459  0.00  0.00    +0.000 N 
ATOM     11  H   UNL     1       4.420  -4.347   1.848  0.00  0.00    +0.000 HD
ENDROOT
BRANCH   5  12
ATOM     12  C   UNL     1       2.583  -2.200   7.613  0.00  0.00    +0.000 A 
ATOM     13  C   UNL     1       2.224  -3.048   8.642  0.00  0.00    +0.000 A 
ATOM     14  C   UNL     1       2.048  -2.586   9.869  0.00  0.00    +0.000 A 
ATOM     15  C   UNL     1       2.212  -1.306  10.158  0.00  0.00    +0.000 A 
ATOM     16  C   UNL     1       2.570  -0.400   9.178  0.00  0.00    +0.000 A 
ATOM     17  C   UNL     1       2.757  -0.849   7.879  0.00  0.00    +0.000 A 
BRANCH  15  18
ATOM     18  C   UNL     1       2.003  -0.825  11.585  0.00  0.00    +0.000 A 
ATOM     19  C   UNL     1       2.837  -1.244  12.602  0.00  0.00    +0.000 A 
ATOM     20  C   UNL     1       2.719  -0.745  13.823  0.00  0.00    +0.000 A 
ATOM     21  C   UNL     1       1.810   0.171  14.112  0.00  0.00    +0.000 A 
ATOM     22  C   UNL     1       0.943   0.636  13.143  0.00  0.00    +0.000 A 
ATOM     23  C   UNL     1       1.034   0.130  11.855  0.00  0.00    +0.000 A 
BRANCH  21  24
ATOM     24  C   UNL     1       1.719   0.718  15.527  0.00  0.00    +0.000 C 
BRANCH  24  25
ATOM     25  N   UNL     1       1.433  -0.381  16.460  0.00  0.00    +0.000 N 
ATOM     26  C   UNL     1       2.233  -1.460  16.634  0.00  0.00    +0.000 A 
ATOM     27  C   UNL     1       1.729  -2.130  17.700  0.00  0.00    +0.000 A 
ATOM     28  N   UNL     1       0.683  -1.469  18.116  0.00  0.00    +0.000 NA
ATOM     29  C   UNL     1       0.505  -0.432  17.376  0.00  0.00    +0.000 A 
ENDBRANCH  24  25
ENDBRANCH  21  24
ENDBRANCH  15  18
ENDBRANCH   5  12
BRANCH   1  30
ATOM     30  O   UNL     1       1.958  -5.269   0.890  0.00  0.00    +0.000 OA
BRANCH  30  35
ATOM     31  C   UNL     1       0.544  -1.158   0.615  0.00  0.00    +0.000 C 
ATOM     32  C   UNL     1       1.385  -1.606   1.560  0.00  0.00    +0.000 C 
ATOM     33  O   UNL     1       2.277  -2.603   0.988  0.00  0.00    +0.000 OA
ATOM     34  C   UNL     1       1.559  -3.174  -0.249  0.00  0.00    +0.000 C 
ATOM     35  C   UNL     1       1.040  -4.560   0.071  0.00  0.00    +0.000 C 
ATOM     36  C   UNL     1      -0.154  -4.400   0.705  0.00  0.00    +0.000 C 
ATOM     37  O   UNL     1      -0.820  -3.203   0.215  0.00  0.00    +0.000 OA
ATOM     38  C   UNL     1       0.283  -2.292  -0.355  0.00  0.00    +0.000 C 
BRANCH  31  39
ATOM     39  O   UNL     1       1.017  -0.023  -0.096  0.00  0.00    +0.000 OA
ATOM     40  H   UNL     1       2.017  -0.023  -0.096  0.00  0.00    +0.000 HD
ENDBRANCH  31  39
ENDBRANCH  30  35
ENDBRANCH   1  30
TORSDOF 7
