REMARK  Name = 
REMARK  4 active torsions:
REMARK  status: ('A' for Active; 'I' for Inactive)
REMARK    1  A    between atoms: C_2  and  C_5
REMARK    2  A    between atoms: C_5  and  N_6
REMARK    3  A    between atoms: N_6  and  C_7
REMARK    4  A    between atoms: N_10  and  C_11
REMARK                            x       y       z     vdW  Elec       q    Type
REMARK                         _______ _______ _______ _____ _____    ______ ____
ROOT
ATOM      1  C   UNL     1       1.440  -2.972   1.952  0.00  0.00    +0.000 A 
ATOM      2  N   UNL     1       1.765  -4.165   1.336  0.00  0.00    +0.000 NA
ATOM      3  C   UNL     1       0.951  -5.286   1.500  0.00  0.00    +0.000 A 
ATOM      4  N   UNL     1       1.301  -6.546   0.829  0.00  0.00    +0.000 N 
ATOM      5  N   UNL     1      -0.178  -5.221   2.287  0.00  0.00    +0.000 NA
ATOM      6  C   UNL     1      -0.519  -4.029   2.915  0.00  0.00    +0.000 A 
ATOM      7  C   UNL     1      -1.560  -3.651   3.740  0.00  0.00    +0.000 A 
ATOM      8  C   UNL     1      -1.400  -2.306   4.083  0.00  0.00    +0.000 A 
ATOM      9  O   UNL     1      -0.329  -1.824   3.525  0.00  0.00    +0.000 OA
ATOM     10  C   UNL     1       0.294  -2.894   2.748  0.00  0.00    +0.000 A 
ATOM     11  H   UNL     1       2.136  -6.598   0.246  0.00  0.00    +0.000 HD
ENDROOT
BRANCH   4  12
ATOM     12  C   UNL     1       0.447  -7.731   0.998  0.00  0.00    +0.000 A 
ATOM     13  C   UNL     1      -0.888  -7.671   0.599  0.00  0.00    +0.000 A 
ATOM     14  C   UNL     1      -1.706  -8.776   0.734  0.00  0.00    +0.000 A 
ATOM     15  C   UNL     1      -1.190  -9.955   1.281  0.00  0.00    +0.000 A 
ATOM     16  C   UNL     1      -1.756 -11.273   1.562  0.00  0.00    +0.000 A 
ATOM     17  N   UNL     1      -0.818 -12.009   2.081  0.00  0.00    +0.000 NA
ATOM     18  N   UNL     1       0.371 -11.279   2.178  0.00  0.00    +0.000 N 
ATOM     19  C   UNL     1       0.155 -10.007   1.687  0.00  0.00    +0.000 A 
ATOM     20  C   UNL     1       0.964  -8.885   1.542  0.00  0.00    +0.000 A 
ATOM     21  H   UNL     1       1.253 -11.629   2.550  0.00  0.00    +0.000 HD
ENDBRANCH   4  12
BRANCH   1  22
ATOM     22  N   UNL     1       2.285  -1.782   1.776  0.00  0.00    +0.000 N 
ATOM     23  H   UNL     1       2.532  -1.208   2.582  0.00  0.00    +0.000 HD
BRANCH  22  24
ATOM     24  C   UNL     1       2.776  -1.420   0.438  0.00  0.00    +0.000 C 
BRANCH  24  26
ATOM     25  F   UNL     1       0.939  -0.034   0.071  0.00  0.00    +0.000 F 
ATOM     26  C   UNL     1       2.269  -0.034   0.071  0.00  0.00    +0.000 C 
ATOM     27  F   UNL     1       2.712   0.294  -1.139  0.00  0.00    +0.000 F 
ATOM     28  F   UNL     1       2.712   0.850   0.961  0.00  0.00    +0.000 F 
ENDBRANCH  24  26
ENDBRANCH  22  24
ENDBRANCH   1  22
TORSDOF 4
