REMARK  Name = 
REMARK  8 active torsions:
REMARK  status: ('A' for Active; 'I' for Inactive)
REMARK    1  A    between atoms: C_1  and  C_2
REMARK    2  A    between atoms: C_2  and  C_3
REMARK    3  A    between atoms: C_3  and  N_4
REMARK    4  A    between atoms: C_3  and  C_27
REMARK    5  A    between atoms: C_5  and  C_7
REMARK    6  A    between atoms: C_13  and  C_14
REMARK    7  A    between atoms: N_16  and  C_17
REMARK    8  A    between atoms: C_31  and  C_32
REMARK                            x       y       z     vdW  Elec       q    Type
REMARK                         _______ _______ _______ _____ _____    ______ ____
ROOT
ATOM      1  C   UNL     1      -0.776  -3.185   3.633  0.00  0.00    +0.000 A 
ATOM      2  C   UNL     1      -2.016  -3.728   3.844  0.00  0.00    +0.000 A 
ATOM      3  N   UNL     1      -1.943  -5.081   3.720  0.00  0.00    +0.000 N 
ATOM      4  C   UNL     1      -0.660  -5.477   3.404  0.00  0.00    +0.000 A 
ATOM      5  N   UNL     1      -0.089  -6.658   3.174  0.00  0.00    +0.000 NA
ATOM      6  C   UNL     1       1.198  -6.741   2.873  0.00  0.00    +0.000 A 
ATOM      7  C   UNL     1       1.994  -5.583   2.808  0.00  0.00    +0.000 A 
ATOM      8  N   UNL     1       1.421  -4.402   3.035  0.00  0.00    +0.000 NA
ATOM      9  C   UNL     1       0.127  -4.312   3.332  0.00  0.00    +0.000 A 
ATOM     10  H   UNL     1      -2.730  -5.717   3.845  0.00  0.00    +0.000 HD
ENDROOT
BRANCH   7  11
ATOM     11  C   UNL     1       3.477  -5.678   2.488  0.00  0.00    +0.000 A 
ATOM     12  N   UNL     1       4.461  -5.274   3.265  0.00  0.00    +0.000 NA
ATOM     13  N   UNL     1       5.631  -5.499   2.686  0.00  0.00    +0.000 N 
ATOM     14  C   UNL     1       6.946  -5.178   3.259  0.00  0.00    +0.000 C 
ATOM     15  C   UNL     1       5.418  -6.066   1.500  0.00  0.00    +0.000 A 
ATOM     16  C   UNL     1       6.242  -6.525   0.451  0.00  0.00    +0.000 A 
ATOM     17  C   UNL     1       5.676  -7.066  -0.649  0.00  0.00    +0.000 A 
ATOM     18 CL   UNL     1       6.720  -7.653  -1.965  0.00  0.00    +0.000 Cl
ATOM     19  C   UNL     1       4.327  -7.172  -0.775  0.00  0.00    +0.000 A 
ATOM     20  C   UNL     1       3.487  -6.754   0.198  0.00  0.00    +0.000 A 
ATOM     21  C   UNL     1       4.006  -6.186   1.363  0.00  0.00    +0.000 A 
ENDBRANCH   7  11
BRANCH   1  23
ATOM     22  N   UNL     1       0.437  -1.117   2.653  0.00  0.00    +0.000 N 
ATOM     23  C   UNL     1      -0.409  -1.711   3.699  0.00  0.00    +0.000 C 
ATOM     24  O   UNL     1      -0.832  -0.993   4.658  0.00  0.00    +0.000 OA
ATOM     25  H   UNL     1       0.683  -0.128   2.697  0.00  0.00    +0.000 HD
BRANCH  22  26
ATOM     26  C   UNL     1       0.927  -1.948   1.544  0.00  0.00    +0.000 C 
BRANCH  26  27
ATOM     27  C   UNL     1       0.420  -3.371   1.714  0.00  0.00    +0.000 C 
ATOM     28  O   UNL     1       1.246  -4.330   1.829  0.00  0.00    +0.000 OA
ATOM     29  N   UNL     1      -1.025  -3.638   1.746  0.00  0.00    +0.000 N 
ATOM     30  C   UNL     1      -1.995  -4.479   2.594  0.00  0.00    +0.000 C 
ATOM     31  C   UNL     1      -2.922  -4.502   1.368  0.00  0.00    +0.000 C 
ATOM     32  C   UNL     1      -2.252  -3.189   0.930  0.00  0.00    +0.000 C 
BRANCH  31  33
ATOM     33  C   UNL     1      -4.431  -4.625   1.505  0.00  0.00    +0.000 C 
ATOM     34  N   UNL     1      -5.683  -4.728   1.618  0.00  0.00    +0.000 NA
ENDBRANCH  31  33
ENDBRANCH  26  27
BRANCH  26  36
ATOM     35  C   UNL     1       0.927   0.039   0.056  0.00  0.00    +0.000 C 
ATOM     36  C   UNL     1       0.420  -1.384   0.226  0.00  0.00    +0.000 C 
ENDBRANCH  26  36
ENDBRANCH  22  26
ENDBRANCH   1  23
TORSDOF 6
