REMARK  Name = 
REMARK  9 active torsions:
REMARK  status: ('A' for Active; 'I' for Inactive)
REMARK    1  A    between atoms: C_1  and  N_2
REMARK    2  A    between atoms: N_2  and  C_3
REMARK    3  A    between atoms: N_2  and  S_4
REMARK    4  A    between atoms: S_4  and  C_7
REMARK    5  A    between atoms: C_10  and  C_11
REMARK    6  A    between atoms: C_14  and  C_15
REMARK    7  A    between atoms: C_19  and  O_20
REMARK    8  A    between atoms: O_20  and  C_21
REMARK    9  A    between atoms: C_25  and  O_26
REMARK                            x       y       z     vdW  Elec       q    Type
REMARK                         _______ _______ _______ _____ _____    ______ ____
ROOT
ATOM      1  C   UNL     1      -1.414  11.269  -5.023  0.00  0.00    +0.000 A 
ATOM      2  N   UNL     1      -1.090  11.270  -6.365  0.00  0.00    +0.000 NA
ATOM      3  C   UNL     1      -1.210  12.450  -7.104  0.00  0.00    +0.000 A 
ATOM      4  N   UNL     1      -0.960  12.800  -8.502  0.00  0.00    +0.000 NA
ATOM      5  C   UNL     1      -1.242  14.060  -8.655  0.00  0.00    +0.000 A 
ATOM      6  N   UNL     1      -1.675  14.609  -7.444  0.00  0.00    +0.000 N 
ATOM      7  C   UNL     1      -1.659  13.626  -6.476  0.00  0.00    +0.000 A 
ATOM      8  C   UNL     1      -1.982  13.605  -5.124  0.00  0.00    +0.000 A 
ATOM      9  C   UNL     1      -1.865  12.436  -4.407  0.00  0.00    +0.000 A 
ATOM     10 CL   UNL     1      -2.292  12.414  -2.679  0.00  0.00    +0.000 Cl
ATOM     11  H   UNL     1      -1.956  15.579  -7.300  0.00  0.00    +0.000 HD
ENDROOT
BRANCH   1  15
ATOM     12  C   UNL     1      -0.684   7.742  -2.727  0.00  0.00    +0.000 A 
ATOM     13  C   UNL     1       0.329   8.230  -3.535  0.00  0.00    +0.000 A 
ATOM     14  C   UNL     1       0.064   9.511  -4.076  0.00  0.00    +0.000 A 
ATOM     15  C   UNL     1      -1.134  10.063  -4.141  0.00  0.00    +0.000 A 
ATOM     16  C   UNL     1      -2.109   9.492  -3.370  0.00  0.00    +0.000 A 
ATOM     17  C   UNL     1      -1.884   8.311  -2.707  0.00  0.00    +0.000 A 
BRANCH  12  21
ATOM     18  C   UNL     1       0.452   4.106  -0.794  0.00  0.00    +0.000 A 
ATOM     19  C   UNL     1       1.194   5.250  -0.549  0.00  0.00    +0.000 A 
ATOM     20  C   UNL     1       0.609   6.433  -1.058  0.00  0.00    +0.000 A 
ATOM     21  C   UNL     1      -0.337   6.465  -1.979  0.00  0.00    +0.000 A 
ATOM     22  C   UNL     1      -0.987   5.287  -2.224  0.00  0.00    +0.000 A 
ATOM     23  C   UNL     1      -0.555   4.111  -1.660  0.00  0.00    +0.000 A 
BRANCH  18  24
ATOM     24  S   UNL     1       1.055   2.626   0.054  0.00  0.00    +0.000 S 
ATOM     25  N   UNL     1       0.530   2.621   1.540  0.00  0.00    +0.000 NA
ATOM     26  O   UNL     1       2.586   2.626   0.054  0.00  0.00    +0.000 OA
ATOM     27  H   UNL     1      -0.473   2.621   1.726  0.00  0.00    +0.000 HD
BRANCH  24  29
ATOM     28  C   UNL     1       0.959  -0.011  -0.090  0.00  0.00    +0.000 C 
ATOM     29  N   UNL     1       0.469   1.191  -0.780  0.00  0.00    +0.000 NA
ATOM     30  C   UNL     1      -1.001   1.191  -0.780  0.00  0.00    +0.000 C 
ENDBRANCH  24  29
ENDBRANCH  18  24
ENDBRANCH  12  21
ENDBRANCH   1  15
BRANCH   5  31
ATOM     31  O   UNL     1      -1.128  14.776  -9.877  0.00  0.00    +0.000 OA
BRANCH  31  32
ATOM     32  C   UNL     1      -0.677  14.112 -11.048  0.00  0.00    +0.000 C 
ATOM     33  C   UNL     1      -1.506  13.100 -11.348  0.00  0.00    +0.000 C 
ATOM     34  O   UNL     1      -1.107  11.907 -10.619  0.00  0.00    +0.000 OA
ATOM     35  C   UNL     1       0.385  12.083 -10.277  0.00  0.00    +0.000 C 
ATOM     36  C   UNL     1       1.212  11.191 -11.180  0.00  0.00    +0.000 C 
ATOM     37  C   UNL     1       1.388  11.865 -12.350  0.00  0.00    +0.000 C 
ATOM     38  O   UNL     1       1.430  13.297 -12.097  0.00  0.00    +0.000 OA
ATOM     39  C   UNL     1       0.692  13.527 -10.765  0.00  0.00    +0.000 C 
BRANCH  36  40
ATOM     40  O   UNL     1       0.559   9.950 -11.403  0.00  0.00    +0.000 OA
ATOM     41  H   UNL     1      -0.332  10.113 -11.827  0.00  0.00    +0.000 HD
ENDBRANCH  36  40
ENDBRANCH  31  32
ENDBRANCH   5  31
TORSDOF 7
