REMARK  Name = 
REMARK  11 active torsions:
REMARK  status: ('A' for Active; 'I' for Inactive)
REMARK    1  A    between atoms: C_1  and  N_2
REMARK    2  A    between atoms: N_2  and  C_3
REMARK    3  A    between atoms: N_2  and  C_4
REMARK    4  A    between atoms: C_4  and  C_5
REMARK    5  A    between atoms: C_5  and  O_6
REMARK    6  A    between atoms: O_6  and  C_7
REMARK    7  A    between atoms: C_10  and  C_11
REMARK    8  A    between atoms: C_14  and  C_15
REMARK    9  A    between atoms: C_19  and  O_20
REMARK   10  A    between atoms: O_20  and  C_21
REMARK   11  A    between atoms: C_25  and  O_26
REMARK                            x       y       z     vdW  Elec       q    Type
REMARK                         _______ _______ _______ _____ _____    ______ ____
ROOT
ATOM      1  C   UNL     1      -0.017  -3.821   7.340  0.00  0.00    +0.000 A 
ATOM      2  N   UNL     1      -1.092  -4.688   7.370  0.00  0.00    +0.000 NA
ATOM      3  C   UNL     1      -1.194  -5.626   8.402  0.00  0.00    +0.000 A 
ATOM      4  N   UNL     1      -2.169  -6.664   8.733  0.00  0.00    +0.000 NA
ATOM      5  C   UNL     1      -1.770  -7.256   9.820  0.00  0.00    +0.000 A 
ATOM      6  N   UNL     1      -0.572  -6.689  10.266  0.00  0.00    +0.000 N 
ATOM      7  C   UNL     1      -0.204  -5.680   9.399  0.00  0.00    +0.000 A 
ATOM      8  C   UNL     1       0.870  -4.800   9.352  0.00  0.00    +0.000 A 
ATOM      9  C   UNL     1       0.965  -3.883   8.329  0.00  0.00    +0.000 A 
ATOM     10 CL   UNL     1       2.351  -2.769   8.267  0.00  0.00    +0.000 Cl
ATOM     11  H   UNL     1      -0.054  -6.975  11.097  0.00  0.00    +0.000 HD
ENDROOT
BRANCH   1  15
ATOM     12  C   UNL     1       0.302  -1.346   3.874  0.00  0.00    +0.000 A 
ATOM     13  C   UNL     1      -0.825  -1.232   4.672  0.00  0.00    +0.000 A 
ATOM     14  C   UNL     1      -0.731  -1.928   5.900  0.00  0.00    +0.000 A 
ATOM     15  C   UNL     1       0.142  -2.886   6.153  0.00  0.00    +0.000 A 
ATOM     16  C   UNL     1       1.196  -2.991   5.289  0.00  0.00    +0.000 A 
ATOM     17  C   UNL     1       1.240  -2.249   4.134  0.00  0.00    +0.000 A 
BRANCH  12  21
ATOM     18  C   UNL     1       0.579   1.532   0.731  0.00  0.00    +0.000 A 
ATOM     19  C   UNL     1       0.332   1.976   2.019  0.00  0.00    +0.000 A 
ATOM     20  C   UNL     1       0.477   0.975   3.009  0.00  0.00    +0.000 A 
ATOM     21  C   UNL     1       0.484  -0.323   2.765  0.00  0.00    +0.000 A 
ATOM     22  C   UNL     1       0.665  -0.696   1.463  0.00  0.00    +0.000 A 
ATOM     23  C   UNL     1       0.665   0.236   0.454  0.00  0.00    +0.000 A 
BRANCH  18  24
ATOM     24  O   UNL     1       0.922   2.471  -0.277  0.00  0.00    +0.000 OA
BRANCH  24  25
ATOM     25  C   UNL     1       0.449   2.293  -1.604  0.00  0.00    +0.000 C 
BRANCH  25  26
ATOM     26  C   UNL     1       0.956   0.968  -2.149  0.00  0.00    +0.000 C 
BRANCH  26  28
ATOM     27  C   UNL     1       0.956   0.055   0.071  0.00  0.00    +0.000 C 
ATOM     28  N   UNL     1       0.466  -0.130  -1.303  0.00  0.00    +0.000 NA
ATOM     29  C   UNL     1      -1.004  -0.130  -1.303  0.00  0.00    +0.000 C 
ENDBRANCH  26  28
ENDBRANCH  25  26
ENDBRANCH  24  25
ENDBRANCH  18  24
ENDBRANCH  12  21
ENDBRANCH   1  15
BRANCH   5  30
ATOM     30  O   UNL     1      -2.452  -8.324  10.462  0.00  0.00    +0.000 OA
BRANCH  30  31
ATOM     31  C   UNL     1      -3.665  -8.820   9.917  0.00  0.00    +0.000 C 
ATOM     32  C   UNL     1      -3.434  -9.275   8.675  0.00  0.00    +0.000 C 
ATOM     33  O   UNL     1      -3.648  -8.204   7.714  0.00  0.00    +0.000 OA
ATOM     34  C   UNL     1      -4.593  -7.192   8.390  0.00  0.00    +0.000 C 
ATOM     35  C   UNL     1      -5.977  -7.324   7.788  0.00  0.00    +0.000 C 
ATOM     36  C   UNL     1      -6.595  -8.351   8.432  0.00  0.00    +0.000 C 
ATOM     37  O   UNL     1      -6.123  -8.431   9.806  0.00  0.00    +0.000 OA
ATOM     38  C   UNL     1      -4.739  -7.755   9.832  0.00  0.00    +0.000 C 
BRANCH  35  39
ATOM     39  O   UNL     1      -5.901  -7.573   6.392  0.00  0.00    +0.000 OA
ATOM     40  H   UNL     1      -5.390  -8.418   6.232  0.00  0.00    +0.000 HD
ENDBRANCH  35  39
ENDBRANCH  30  31
ENDBRANCH   5  30
TORSDOF 9
