
 OpenBabel03132514253D

 56 60  0  0  0  0  0  0  0  0999 V2000
    1.0570   -0.0539   -0.0621 O   0  0  0  0  0  0  0  0  0  0  0  0
    2.3279   -0.0539   -0.0621 C   0  0  0  0  0  0  0  0  0  0  0  0
    3.0379    0.8836   -0.8580 O   0  0  0  0  0  0  0  0  0  0  0  0
    3.0879   -1.0574    0.7899 C   0  0  0  0  0  0  0  0  0  0  0  0
    2.1483   -2.2622    0.8928 C   0  0  0  0  0  0  0  0  0  0  0  0
    2.8832   -3.4226    1.5751 C   0  0  0  0  0  0  0  0  0  0  0  0
    3.5212   -2.9042    2.8398 C   0  0  0  0  0  0  0  0  0  0  0  0
    3.7140   -1.5955    3.1186 C   0  0  0  0  0  0  0  0  0  0  0  0
    4.3154   -1.4740    4.3403 C   0  0  0  0  0  0  0  0  0  0  0  0
    4.7129   -0.3752    5.0508 C   0  0  0  0  0  0  0  0  0  0  0  0
    5.2956   -0.5077    6.2623 C   0  0  0  0  0  0  0  0  0  0  0  0
    5.6986    0.6482    6.9819 O   0  0  0  0  0  0  0  0  0  0  0  0
    6.3114    0.5137    8.2558 C   0  0  0  0  0  0  0  0  0  0  0  0
    5.3586   -0.1956    9.2041 C   0  0  0  0  0  0  0  0  0  0  0  0
    5.5788   -1.5774    9.4618 C   0  0  0  0  0  0  0  0  0  0  0  0
    4.5999   -2.3149   10.1477 C   0  0  0  0  0  0  0  0  0  0  0  0
    3.6420   -1.6987   10.7756 C   0  0  0  0  0  0  0  0  0  0  0  0
    3.5908   -0.2984   10.7781 C   0  0  0  0  0  0  0  0  0  0  0  0
    4.3780    0.4323    9.8552 C   0  0  0  0  0  0  0  0  0  0  0  0
    5.5049   -1.7797    6.8133 C   0  0  0  0  0  0  0  0  0  0  0  0
    5.1136   -2.8874    6.1150 C   0  0  0  0  0  0  0  0  0  0  0  0
    4.5107   -2.7305    4.8620 C   0  0  0  0  0  0  0  0  0  0  0  0
    4.0108   -3.6601    3.9247 N   0  0  0  0  0  0  0  0  0  0  0  0
    4.0024   -5.1243    4.0540 C   0  0  0  0  0  0  0  0  0  0  0  0
    2.5700   -5.6297    3.9979 C   0  0  0  0  0  0  0  0  0  0  0  0
    1.7599   -5.3899    2.8532 C   0  0  0  0  0  0  0  0  0  0  0  0
    0.3730   -5.5957    2.9352 C   0  0  0  0  0  0  0  0  0  0  0  0
   -0.1293   -6.2511    3.9401 C   0  0  0  0  0  0  0  0  0  0  0  0
   -1.4438   -6.4364    4.0217 F   0  0  0  0  0  0  0  0  0  0  0  0
    0.7127   -6.7622    4.9367 C   0  0  0  0  0  0  0  0  0  0  0  0
    2.0509   -6.3071    5.0233 C   0  0  0  0  0  0  0  0  0  0  0  0
    3.3172   -0.4707    2.1903 C   0  0  0  0  0  0  0  0  0  0  0  0
    4.0379    0.8836   -0.8580 H   0  0  0  0  0  0  0  0  0  0  0  0
    4.0416   -1.3100    0.3757 H   0  0  0  0  0  0  0  0  0  0  0  0
    1.8401   -2.5607   -0.0875 H   0  0  0  0  0  0  0  0  0  0  0  0
    1.2876   -1.9958    1.4699 H   0  0  0  0  0  0  0  0  0  0  0  0
    3.6318   -3.8188    0.9213 H   0  0  0  0  0  0  0  0  0  0  0  0
    2.1880   -4.2002    1.8137 H   0  0  0  0  0  0  0  0  0  0  0  0
    4.5606    0.6018    4.6419 H   0  0  0  0  0  0  0  0  0  0  0  0
    7.2109   -0.0579    8.1603 H   0  0  0  0  0  0  0  0  0  0  0  0
    6.5445    1.4833    8.6436 H   0  0  0  0  0  0  0  0  0  0  0  0
    6.4817   -2.0503    9.1361 H   0  0  0  0  0  0  0  0  0  0  0  0
    4.6422   -3.3841   10.1536 H   0  0  0  0  0  0  0  0  0  0  0  0
    2.8922   -2.2618   11.2910 H   0  0  0  0  0  0  0  0  0  0  0  0
    2.9605    0.2158   11.4733 H   0  0  0  0  0  0  0  0  0  0  0  0
    4.1893    1.4713    9.6828 H   0  0  0  0  0  0  0  0  0  0  0  0
    5.9672   -1.8824    7.7728 H   0  0  0  0  0  0  0  0  0  0  0  0
    5.2668   -3.8649    6.5224 H   0  0  0  0  0  0  0  0  0  0  0  0
    4.5647   -5.5564    3.2526 H   0  0  0  0  0  0  0  0  0  0  0  0
    4.4424   -5.4024    4.9888 H   0  0  0  0  0  0  0  0  0  0  0  0
    2.2031   -5.0560    1.9383 H   0  0  0  0  0  0  0  0  0  0  0  0
   -0.2706   -5.2131    2.1708 H   0  0  0  0  0  0  0  0  0  0  0  0
    0.3466   -7.4920    5.6283 H   0  0  0  0  0  0  0  0  0  0  0  0
    2.6364   -6.5035    5.8972 H   0  0  0  0  0  0  0  0  0  0  0  0
    4.0895    0.2692    2.1574 H   0  0  0  0  0  0  0  0  0  0  0  0
    2.4167   -0.0122    2.5421 H   0  0  0  0  0  0  0  0  0  0  0  0
  1  2  2  0  0  0  0
  2  3  1  0  0  0  0
  2  4  1  0  0  0  0
  3 33  1  0  0  0  0
  4  5  1  0  0  0  0
  4 32  1  0  0  0  0
  4 34  1  0  0  0  0
  5  6  1  0  0  0  0
  5 35  1  0  0  0  0
  5 36  1  0  0  0  0
  6  7  1  0  0  0  0
  6 37  1  0  0  0  0
  6 38  1  0  0  0  0
  7  8  2  0  0  0  0
  7 23  1  0  0  0  0
  8  9  1  0  0  0  0
  8 32  1  0  0  0  0
  9 10  1  0  0  0  0
  9 22  2  0  0  0  0
 10 11  2  0  0  0  0
 10 39  1  0  0  0  0
 11 12  1  0  0  0  0
 11 20  1  0  0  0  0
 12 13  1  0  0  0  0
 13 14  1  0  0  0  0
 13 40  1  0  0  0  0
 13 41  1  0  0  0  0
 14 15  1  0  0  0  0
 14 19  2  0  0  0  0
 15 16  2  0  0  0  0
 15 42  1  0  0  0  0
 16 17  1  0  0  0  0
 16 43  1  0  0  0  0
 17 18  2  0  0  0  0
 17 44  1  0  0  0  0
 18 19  1  0  0  0  0
 18 45  1  0  0  0  0
 19 46  1  0  0  0  0
 20 21  2  0  0  0  0
 20 47  1  0  0  0  0
 21 22  1  0  0  0  0
 21 48  1  0  0  0  0
 22 23  1  0  0  0  0
 23 24  1  0  0  0  0
 24 25  1  0  0  0  0
 24 49  1  0  0  0  0
 24 50  1  0  0  0  0
 25 26  1  0  0  0  0
 25 31  2  0  0  0  0
 26 27  2  0  0  0  0
 26 51  1  0  0  0  0
 27 28  1  0  0  0  0
 27 52  1  0  0  0  0
 28 29  1  0  0  0  0
 28 30  2  0  0  0  0
 30 31  1  0  0  0  0
 30 53  1  0  0  0  0
 31 54  1  0  0  0  0
 32 55  1  0  0  0  0
 32 56  1  0  0  0  0
M  END
