REMARK  Name = 
REMARK  8 active torsions:
REMARK  status: ('A' for Active; 'I' for Inactive)
REMARK    1  A    between atoms: C_2  and  OXT_3
REMARK    2  A    between atoms: C_2  and  CA_4
REMARK    3  A    between atoms: C_7  and  C_8
REMARK    4  A    between atoms: C_11  and  C_12
REMARK    5  A    between atoms: C_15  and  C_16
REMARK    6  A    between atoms: C_20  and  O_21
REMARK    7  A    between atoms: O_21  and  C_22
REMARK    8  A    between atoms: C_26  and  O_27
REMARK                            x       y       z     vdW  Elec       q    Type
REMARK                         _______ _______ _______ _____ _____    ______ ____
ROOT
ATOM      1  C   UNL     1       3.043 -12.160   5.882  0.00  0.00    +0.000 A 
ATOM      2  N   UNL     1       2.888 -13.334   5.173  0.00  0.00    +0.000 NA
ATOM      3  C   UNL     1       2.879 -14.556   5.853  0.00  0.00    +0.000 A 
ATOM      4  N   UNL     1       2.739 -15.949   5.430  0.00  0.00    +0.000 NA
ATOM      5  C   UNL     1       2.804 -16.697   6.492  0.00  0.00    +0.000 A 
ATOM      6  N   UNL     1       2.982 -15.905   7.631  0.00  0.00    +0.000 N 
ATOM      7  C   UNL     1       3.029 -14.579   7.251  0.00  0.00    +0.000 A 
ATOM      8  C   UNL     1       3.186 -13.387   7.948  0.00  0.00    +0.000 A 
ATOM      9  C   UNL     1       3.198 -12.189   7.268  0.00  0.00    +0.000 A 
ATOM     10 CL   UNL     1       3.413 -10.667   8.165  0.00  0.00    +0.000 Cl
ATOM     11  H   UNL     1       3.062 -16.251   8.587  0.00  0.00    +0.000 HD
ENDROOT
BRANCH   1  15
ATOM     12  C   UNL     1       3.150  -8.538   3.620  0.00  0.00    +0.000 A 
ATOM     13  C   UNL     1       2.056  -9.377   3.482  0.00  0.00    +0.000 A 
ATOM     14  C   UNL     1       2.015 -10.427   4.429  0.00  0.00    +0.000 A 
ATOM     15  C   UNL     1       3.050 -10.831   5.144  0.00  0.00    +0.000 A 
ATOM     16  C   UNL     1       4.126  -9.989   5.186  0.00  0.00    +0.000 A 
ATOM     17  C   UNL     1       4.181  -8.873   4.387  0.00  0.00    +0.000 A 
BRANCH  12  21
ATOM     18  C   UNL     1       3.048  -4.912   1.367  0.00  0.00    +0.000 A 
ATOM     19  C   UNL     1       2.001  -5.187   2.230  0.00  0.00    +0.000 A 
ATOM     20  C   UNL     1       2.236  -6.292   3.083  0.00  0.00    +0.000 A 
ATOM     21  C   UNL     1       3.162  -7.212   2.878  0.00  0.00    +0.000 A 
ATOM     22  C   UNL     1       4.130  -6.907   1.963  0.00  0.00    +0.000 A 
ATOM     23  C   UNL     1       4.037  -5.778   1.185  0.00  0.00    +0.000 A 
BRANCH  18  27
ATOM     24  CA  UNL     1       3.095  -1.363   0.233  0.00  0.00    +0.000 C 
ATOM     25  C   UNL     1       3.521  -2.022  -1.117  0.00  0.00    +0.000 C 
ATOM     26  C   UNL     1       3.053  -3.479  -0.930  0.00  0.00    +0.000 C 
ATOM     27  C   UNL     1       3.059  -3.589   0.618  0.00  0.00    +0.000 C 
ATOM     28  N   UNL     1       3.073  -2.447   1.196  0.00  0.00    +0.000 NA
BRANCH  24  30
ATOM     29  O   UNL     1       1.064  -0.072  -0.025  0.00  0.00    +0.000 OA
ATOM     30  C   UNL     1       2.335  -0.072  -0.025  0.00  0.00    +0.000 C 
BRANCH  30  31
ATOM     31  OXT UNL     1       3.045   1.133  -0.267  0.00  0.00    +0.000 OA
ATOM     32  HXT UNL     1       4.045   1.133  -0.267  0.00  0.00    +0.000 HD
ENDBRANCH  30  31
ENDBRANCH  24  30
ENDBRANCH  18  27
ENDBRANCH  12  21
ENDBRANCH   1  15
BRANCH   5  33
ATOM     33  O   UNL     1       2.709 -18.114   6.495  0.00  0.00    +0.000 OA
BRANCH  33  34
ATOM     34  C   UNL     1       2.529 -18.816   5.273  0.00  0.00    +0.000 C 
ATOM     35  C   UNL     1       3.545 -18.585   4.427  0.00  0.00    +0.000 C 
ATOM     36  O   UNL     1       3.259 -17.403   3.628  0.00  0.00    +0.000 OA
ATOM     37  C   UNL     1       1.727 -17.237   3.628  0.00  0.00    +0.000 C 
ATOM     38  C   UNL     1       1.181 -17.659   2.280  0.00  0.00    +0.000 C 
ATOM     39  C   UNL     1       1.046 -19.013   2.312  0.00  0.00    +0.000 C 
ATOM     40  O   UNL     1       0.736 -19.449   3.665  0.00  0.00    +0.000 OA
ATOM     41  C   UNL     1       1.251 -18.346   4.608  0.00  0.00    +0.000 C 
BRANCH  38  42
ATOM     42  O   UNL     1       2.052 -17.261   1.232  0.00  0.00    +0.000 OA
ATOM     43  H   UNL     1       2.951 -17.678   1.369  0.00  0.00    +0.000 HD
ENDBRANCH  38  42
ENDBRANCH  33  34
ENDBRANCH   5  33
TORSDOF 8
