REMARK  Name = 
REMARK  10 active torsions:
REMARK  status: ('A' for Active; 'I' for Inactive)
REMARK    1  A    between atoms: C_1  and  N_2
REMARK    2  A    between atoms: N_2  and  C_3
REMARK    3  A    between atoms: N_2  and  S_4
REMARK    4  A    between atoms: S_4  and  C_5
REMARK    5  A    between atoms: N_7  and  C_8
REMARK    6  A    between atoms: C_11  and  C_12
REMARK    7  A    between atoms: C_15  and  C_16
REMARK    8  A    between atoms: C_20  and  O_21
REMARK    9  A    between atoms: O_21  and  C_22
REMARK   10  A    between atoms: C_26  and  O_27
REMARK                            x       y       z     vdW  Elec       q    Type
REMARK                         _______ _______ _______ _____ _____    ______ ____
ROOT
ATOM      1  C   UNL     1       3.029   3.302  12.995  0.00  0.00    +0.000 A 
ATOM      2  N   UNL     1       3.425   2.182  13.698  0.00  0.00    +0.000 NA
ATOM      3  C   UNL     1       3.788   2.303  15.043  0.00  0.00    +0.000 A 
ATOM      4  N   UNL     1       4.242   1.353  16.058  0.00  0.00    +0.000 NA
ATOM      5  C   UNL     1       4.442   2.013  17.161  0.00  0.00    +0.000 A 
ATOM      6  N   UNL     1       4.152   3.368  16.973  0.00  0.00    +0.000 N 
ATOM      7  C   UNL     1       3.746   3.561  15.668  0.00  0.00    +0.000 A 
ATOM      8  C   UNL     1       3.345   4.678  14.944  0.00  0.00    +0.000 A 
ATOM      9  C   UNL     1       2.996   4.550  13.618  0.00  0.00    +0.000 A 
ATOM     10 CL   UNL     1       2.497   5.986  12.693  0.00  0.00    +0.000 Cl
ATOM     11  H   UNL     1       4.229   4.095  17.684  0.00  0.00    +0.000 HD
ENDROOT
BRANCH   1  15
ATOM     12  C   UNL     1       2.097   2.766   8.861  0.00  0.00    +0.000 A 
ATOM     13  C   UNL     1       1.418   2.007   9.800  0.00  0.00    +0.000 A 
ATOM     14  C   UNL     1       1.641   2.415  11.136  0.00  0.00    +0.000 A 
ATOM     15  C   UNL     1       2.645   3.177  11.530  0.00  0.00    +0.000 A 
ATOM     16  C   UNL     1       3.320   3.848  10.548  0.00  0.00    +0.000 A 
ATOM     17  C   UNL     1       3.067   3.599   9.220  0.00  0.00    +0.000 A 
BRANCH  12  21
ATOM     18  C   UNL     1       0.966   2.226   4.778  0.00  0.00    +0.000 A 
ATOM     19  C   UNL     1      -0.011   2.565   5.700  0.00  0.00    +0.000 A 
ATOM     20  C   UNL     1       0.499   2.933   6.967  0.00  0.00    +0.000 A 
ATOM     21  C   UNL     1       1.717   2.654   7.394  0.00  0.00    +0.000 A 
ATOM     22  C   UNL     1       2.619   2.260   6.444  0.00  0.00    +0.000 A 
ATOM     23  C   UNL     1       2.220   2.007   5.154  0.00  0.00    +0.000 A 
BRANCH  18  27
ATOM     24  S   UNL     1       1.135   0.907   2.501  0.00  0.00    +0.000 S 
ATOM     25  C   UNL     1       0.532  -0.642   3.218  0.00  0.00    +0.000 C 
ATOM     26  O   UNL     1       2.666   0.907   2.501  0.00  0.00    +0.000 OA
ATOM     27  N   UNL     1       0.610   2.121   3.356  0.00  0.00    +0.000 NA
BRANCH  24  29
ATOM     28  C   UNL     1       1.039  -0.077   0.050  0.00  0.00    +0.000 C 
ATOM     29  N   UNL     1       0.549   1.056   0.848  0.00  0.00    +0.000 NA
ATOM     30  C   UNL     1      -0.921   1.056   0.848  0.00  0.00    +0.000 C 
ENDBRANCH  24  29
ENDBRANCH  18  27
ENDBRANCH  12  21
ENDBRANCH   1  15
BRANCH   5  31
ATOM     31  O   UNL     1       4.889   1.440  18.381  0.00  0.00    +0.000 OA
BRANCH  31  32
ATOM     32  C   UNL     1       5.153   0.047  18.456  0.00  0.00    +0.000 C 
ATOM     33  C   UNL     1       6.024   0.407  17.499  0.00  0.00    +0.000 C 
ATOM     34  O   UNL     1       5.458   0.120  16.190  0.00  0.00    +0.000 OA
ATOM     35  C   UNL     1       4.402  -0.981  16.401  0.00  0.00    +0.000 C 
ATOM     36  C   UNL     1       4.948  -2.299  15.892  0.00  0.00    +0.000 C 
ATOM     37  C   UNL     1       5.713  -2.824  16.889  0.00  0.00    +0.000 C 
ATOM     38  O   UNL     1       5.181  -2.429  18.184  0.00  0.00    +0.000 OA
ATOM     39  C   UNL     1       4.365  -1.144  17.947  0.00  0.00    +0.000 C 
BRANCH  36  40
ATOM     40  O   UNL     1       5.714  -2.109  14.712  0.00  0.00    +0.000 OA
ATOM     41  H   UNL     1       6.475  -1.489  14.904  0.00  0.00    +0.000 HD
ENDBRANCH  36  40
ENDBRANCH  31  32
ENDBRANCH   5  31
TORSDOF 7
