REMARK  Name = 
REMARK  10 active torsions:
REMARK  status: ('A' for Active; 'I' for Inactive)
REMARK    1  A    between atoms: C_1  and  N_2
REMARK    2  A    between atoms: S_3  and  C_5
REMARK    3  A    between atoms: S_3  and  N_37
REMARK    4  A    between atoms: C_8  and  C_9
REMARK    5  A    between atoms: C_12  and  C_13
REMARK    6  A    between atoms: C_17  and  O_18
REMARK    7  A    between atoms: O_18  and  C_19
REMARK    8  A    between atoms: C_23  and  O_24
REMARK    9  A    between atoms: N_37  and  C_38
REMARK   10  A    between atoms: N_37  and  C_39
REMARK                            x       y       z     vdW  Elec       q    Type
REMARK                         _______ _______ _______ _____ _____    ______ ____
ROOT
ATOM      1  C   UNL     1      11.183   2.288   3.300  0.00  0.00    +0.000 A 
ATOM      2  N   UNL     1      11.910   2.834   2.261  0.00  0.00    +0.000 NA
ATOM      3  C   UNL     1      13.299   2.944   2.372  0.00  0.00    +0.000 A 
ATOM      4  N   UNL     1      14.348   3.456   1.491  0.00  0.00    +0.000 NA
ATOM      5  C   UNL     1      15.487   3.316   2.103  0.00  0.00    +0.000 A 
ATOM      6  N   UNL     1      15.292   2.735   3.359  0.00  0.00    +0.000 N 
ATOM      7  C   UNL     1      13.944   2.500   3.539  0.00  0.00    +0.000 A 
ATOM      8  C   UNL     1      13.196   1.953   4.576  0.00  0.00    +0.000 A 
ATOM      9  C   UNL     1      11.828   1.854   4.458  0.00  0.00    +0.000 A 
ATOM     10 CL   UNL     1      10.874   1.166   5.795  0.00  0.00    +0.000 Cl
ATOM     11  H   UNL     1      16.026   2.521   4.034  0.00  0.00    +0.000 HD
ENDROOT
BRANCH   1  15
ATOM     12  C   UNL     1       6.942   2.117   2.825  0.00  0.00    +0.000 A 
ATOM     13  C   UNL     1       7.743   1.523   1.863  0.00  0.00    +0.000 A 
ATOM     14  C   UNL     1       9.109   1.445   2.224  0.00  0.00    +0.000 A 
ATOM     15  C   UNL     1       9.673   2.159   3.181  0.00  0.00    +0.000 A 
ATOM     16  C   UNL     1       8.826   2.776   4.059  0.00  0.00    +0.000 A 
ATOM     17  C   UNL     1       7.469   2.785   3.844  0.00  0.00    +0.000 A 
BRANCH  12  21
ATOM     18  C   UNL     1       2.720   1.780   2.268  0.00  0.00    +0.000 A 
ATOM     19  C   UNL     1       3.480   0.622   2.307  0.00  0.00    +0.000 A 
ATOM     20  C   UNL     1       4.820   0.830   2.712  0.00  0.00    +0.000 A 
ATOM     21  C   UNL     1       5.430   2.001   2.710  0.00  0.00    +0.000 A 
ATOM     22  C   UNL     1       4.630   3.104   2.601  0.00  0.00    +0.000 A 
ATOM     23  C   UNL     1       3.287   2.979   2.336  0.00  0.00    +0.000 A 
BRANCH  18  26
ATOM     24  C   UNL     1       1.030  -0.025   0.092  0.00  0.00    +0.000 C 
ATOM     25  N   UNL     1       0.540   1.244   0.650  0.00  0.00    +0.000 NA
ATOM     26  S   UNL     1       0.921   1.655   2.123  0.00  0.00    +0.000 S 
ATOM     27  O   UNL     1       0.402   0.597   3.099  0.00  0.00    +0.000 OA
BRANCH  26  28
ATOM     28  N   UNL     1       0.192   3.212   2.503  0.00  0.00    +0.000 NA
ATOM     29  C   UNL     1      -1.270   3.110   2.385  0.00  0.00    +0.000 C 
ATOM     30  C   UNL     1       0.547   3.596   3.877  0.00  0.00    +0.000 C 
ENDBRANCH  26  28
ENDBRANCH  18  26
ENDBRANCH  12  21
ENDBRANCH   1  15
BRANCH   5  31
ATOM     31  O   UNL     1      16.747   3.697   1.571  0.00  0.00    +0.000 OA
BRANCH  31  32
ATOM     32  C   UNL     1      16.825   4.280   0.278  0.00  0.00    +0.000 C 
ATOM     33  C   UNL     1      16.113   5.418   0.231  0.00  0.00    +0.000 C 
ATOM     34  O   UNL     1      14.737   5.118  -0.138  0.00  0.00    +0.000 OA
ATOM     35  C   UNL     1      14.768   3.771  -0.884  0.00  0.00    +0.000 C 
ATOM     36  C   UNL     1      14.576   4.017  -2.366  0.00  0.00    +0.000 C 
ATOM     37  C   UNL     1      15.796   4.341  -2.876  0.00  0.00    +0.000 C 
ATOM     38  O   UNL     1      16.843   3.655  -2.133  0.00  0.00    +0.000 OA
ATOM     39  C   UNL     1      16.251   3.326  -0.749  0.00  0.00    +0.000 C 
BRANCH  36  40
ATOM     40  O   UNL     1      13.640   5.061  -2.590  0.00  0.00    +0.000 OA
ATOM     41  H   UNL     1      13.967   5.901  -2.155  0.00  0.00    +0.000 HD
ENDBRANCH  36  40
ENDBRANCH  31  32
ENDBRANCH   5  31
TORSDOF 7
