REMARK  Name = 
REMARK  12 active torsions:
REMARK  status: ('A' for Active; 'I' for Inactive)
REMARK    1  A    between atoms: C_1  and  O_2
REMARK    2  A    between atoms: O_2  and  C_3
REMARK    3  A    between atoms: C_3  and  C_4
REMARK    4  A    between atoms: C_4  and  N_5
REMARK    5  A    between atoms: C_7  and  C_8
REMARK    6  A    between atoms: C_7  and  N_11
REMARK    7  A    between atoms: N_11  and  C_12
REMARK    8  A    between atoms: N_11  and  C_13
REMARK    9  A    between atoms: C_13  and  C_14
REMARK   10  A    between atoms: N_18  and  C_19
REMARK   11  A    between atoms: C_32  and  O_33
REMARK   12  A    between atoms: O_33  and  C_34
REMARK                            x       y       z     vdW  Elec       q    Type
REMARK                         _______ _______ _______ _____ _____    ______ ____
ROOT
ATOM      1  C   UNL     1       2.848  -5.976  -1.051  0.00  0.00    +0.000 A 
ATOM      2  C   UNL     1       2.626  -7.322  -1.120  0.00  0.00    +0.000 A 
ATOM      3  C   UNL     1       3.635  -8.223  -0.710  0.00  0.00    +0.000 A 
ATOM      4  C   UNL     1       3.499  -9.640  -0.744  0.00  0.00    +0.000 A 
ATOM      5  N   UNL     1       2.254 -10.226  -1.264  0.00  0.00    +0.000 N 
ATOM      6  N   UNL     1       4.451 -10.438  -0.325  0.00  0.00    +0.000 NA
ATOM      7  C   UNL     1       5.603  -9.854   0.129  0.00  0.00    +0.000 A 
ATOM      8  N   UNL     1       5.862  -8.576   0.190  0.00  0.00    +0.000 NA
ATOM      9  C   UNL     1       4.869  -7.729  -0.231  0.00  0.00    +0.000 A 
ATOM     10  C   UNL     1       5.077  -6.332  -0.197  0.00  0.00    +0.000 A 
ATOM     11  C   UNL     1       4.081  -5.479  -0.586  0.00  0.00    +0.000 A 
ATOM     12  H   UNL     1       1.504  -9.619  -1.593  0.00  0.00    +0.000 HD
ENDROOT
BRANCH   5  13
ATOM     13  C   UNL     1       2.092 -11.686  -1.308  0.00  0.00    +0.000 A 
ATOM     14  C   UNL     1       1.875 -12.327  -2.510  0.00  0.00    +0.000 A 
ATOM     15  C   UNL     1       1.721 -13.706  -2.571  0.00  0.00    +0.000 A 
ATOM     16  C   UNL     1       1.790 -14.447  -1.392  0.00  0.00    +0.000 A 
ATOM     17  C   UNL     1       2.009 -13.803  -0.189  0.00  0.00    +0.000 A 
ATOM     18 CL   UNL     1       2.138 -14.716   1.275  0.00  0.00    +0.000 Cl
ATOM     19  C   UNL     1       2.153 -12.434  -0.161  0.00  0.00    +0.000 A 
ATOM     20  F   UNL     1       2.387 -11.818   1.016  0.00  0.00    +0.000 F 
ENDBRANCH   5  13
BRANCH  11  21
ATOM     21  O   UNL     1       4.293  -4.077  -0.521  0.00  0.00    +0.000 OA
ATOM     22  C   UNL     1       3.265  -3.184  -0.922  0.00  0.00    +0.000 C 
ENDBRANCH  11  21
BRANCH   1  23
ATOM     23  C   UNL     1       1.729  -5.035  -1.465  0.00  0.00    +0.000 C 
BRANCH  23  24
ATOM     24  N   UNL     1       2.046  -3.670  -1.021  0.00  0.00    +0.000 NA
ATOM     25  C   UNL     1       3.307  -3.234  -1.639  0.00  0.00    +0.000 C 
BRANCH  24  28
ATOM     26  N   UNL     1       1.003  -2.047   1.162  0.00  0.00    +0.000 NA
ATOM     27  C   UNL     1       2.519  -2.274   1.038  0.00  0.00    +0.000 C 
ATOM     28  C   UNL     1       2.186  -3.651   0.442  0.00  0.00    +0.000 C 
ATOM     29  C   UNL     1       0.857  -3.579   1.213  0.00  0.00    +0.000 C 
BRANCH  28  30
ATOM     30  C   UNL     1       3.130  -4.835   0.577  0.00  0.00    +0.000 C 
ATOM     31  N   UNL     1       3.574  -5.561  -0.621  0.00  0.00    +0.000 N 
ATOM     32  O   UNL     1       3.535  -5.196   1.726  0.00  0.00    +0.000 OA
ATOM     33  H   UNL     1       4.207  -6.355  -0.530  0.00  0.00    +0.000 HD
ATOM     34  H   UNL     1       3.249  -5.271  -1.543  0.00  0.00    +0.000 HD
ENDBRANCH  28  30
BRANCH  26  35
ATOM     35  C   UNL     1       0.513  -1.359   2.365  0.00  0.00    +0.000 C 
BRANCH  35  36
ATOM     36  C   UNL     1       1.019   0.074   2.370  0.00  0.00    +0.000 C 
BRANCH  36  38
ATOM     37  C   UNL     1       1.019   0.084   0.052  0.00  0.00    +0.000 C 
ATOM     38  O   UNL     1       0.546   0.748   1.214  0.00  0.00    +0.000 OA
ENDBRANCH  36  38
ENDBRANCH  35  36
ENDBRANCH  26  35
ENDBRANCH  24  28
ENDBRANCH  23  24
ENDBRANCH   1  23
TORSDOF 9
