REMARK  Name = 
REMARK  6 active torsions:
REMARK  status: ('A' for Active; 'I' for Inactive)
REMARK    1  A    between atoms: C_2  and  O_3
REMARK    2  A    between atoms: C_2  and  C_4
REMARK    3  A    between atoms: C_11  and  C_12
REMARK    4  A    between atoms: C_15  and  C_16
REMARK    5  A    between atoms: C_16  and  C_17
REMARK    6  A    between atoms: C_17  and  O_18
REMARK                            x       y       z     vdW  Elec       q    Type
REMARK                         _______ _______ _______ _____ _____    ______ ____
ROOT
ATOM      1  C   UNL     1       2.983  -0.781   1.085  0.00  0.00    +0.000 A 
ATOM      2  C   UNL     1       3.983  -0.293   1.895  0.00  0.00    +0.000 A 
ATOM      3  N   UNL     1       4.271  -1.188   2.891  0.00  0.00    +0.000 N 
ATOM      4  C   UNL     1       3.491  -2.308   2.717  0.00  0.00    +0.000 A 
ATOM      5  C   UNL     1       3.492  -3.507   3.438  0.00  0.00    +0.000 A 
ATOM      6  C   UNL     1       2.636  -4.489   2.981  0.00  0.00    +0.000 A 
ATOM      7 CL   UNL     1       2.600  -6.025   3.809  0.00  0.00    +0.000 Cl
ATOM      8  C   UNL     1       1.805  -4.325   1.858  0.00  0.00    +0.000 A 
ATOM      9  C   UNL     1       1.812  -3.128   1.159  0.00  0.00    +0.000 A 
ATOM     10  C   UNL     1       2.658  -2.090   1.589  0.00  0.00    +0.000 A 
ATOM     11  H   UNL     1       4.951  -1.048   3.638  0.00  0.00    +0.000 HD
ENDROOT
BRANCH   8  12
ATOM     12  C   UNL     1       0.899  -5.460   1.411  0.00  0.00    +0.000 A 
ATOM     13  C   UNL     1       1.030  -6.037   0.159  0.00  0.00    +0.000 A 
ATOM     14  C   UNL     1      -0.046  -6.884  -0.198  0.00  0.00    +0.000 A 
ATOM     15  C   UNL     1      -0.914  -7.392   0.657  0.00  0.00    +0.000 A 
ATOM     16  C   UNL     1      -0.947  -6.824   1.900  0.00  0.00    +0.000 A 
ATOM     17  C   UNL     1      -0.009  -5.894   2.277  0.00  0.00    +0.000 A 
BRANCH  15  18
ATOM     18  C   UNL     1      -1.827  -8.548   0.280  0.00  0.00    +0.000 C 
ATOM     19  C   UNL     1      -2.485  -9.682   1.068  0.00  0.00    +0.000 C 
ATOM     20  C   UNL     1      -3.343  -8.745   0.213  0.00  0.00    +0.000 C 
BRANCH  18  21
ATOM     21  C   UNL     1      -0.689  -8.395  -0.717  0.00  0.00    +0.000 C 
BRANCH  21  22
ATOM     22  O   UNL     1      -0.750  -7.107  -1.311  0.00  0.00    +0.000 OA
ATOM     23  H   UNL     1      -1.624  -6.999  -1.784  0.00  0.00    +0.000 HD
ENDBRANCH  21  22
ENDBRANCH  18  21
ENDBRANCH  15  18
ENDBRANCH   8  12
BRANCH   1  25
ATOM     24  O   UNL     1       0.953  -0.083  -0.031  0.00  0.00    +0.000 OA
ATOM     25  C   UNL     1       2.224  -0.083  -0.031  0.00  0.00    +0.000 C 
BRANCH  25  26
ATOM     26  O   UNL     1       2.933   0.570  -1.073  0.00  0.00    +0.000 OA
ATOM     27  H   UNL     1       3.933   0.570  -1.073  0.00  0.00    +0.000 HD
ENDBRANCH  25  26
ENDBRANCH   1  25
TORSDOF 6
