REMARK  Name = 
REMARK  11 active torsions:
REMARK  status: ('A' for Active; 'I' for Inactive)
REMARK    1  A    between atoms: C_1  and  C_2
REMARK    2  A    between atoms: C_2  and  N_3
REMARK    3  A    between atoms: N_3  and  C_4
REMARK    4  A    between atoms: N_3  and  S_5
REMARK    5  A    between atoms: S_5  and  C_6
REMARK    6  A    between atoms: N_8  and  C_9
REMARK    7  A    between atoms: C_12  and  C_13
REMARK    8  A    between atoms: C_16  and  C_17
REMARK    9  A    between atoms: C_21  and  O_22
REMARK   10  A    between atoms: O_22  and  C_23
REMARK   11  A    between atoms: C_27  and  O_28
REMARK                            x       y       z     vdW  Elec       q    Type
REMARK                         _______ _______ _______ _____ _____    ______ ____
ROOT
ATOM      1  C   UNL     1      13.099   5.757   0.086  0.00  0.00    +0.000 A 
ATOM      2  N   UNL     1      13.969   4.875   0.695  0.00  0.00    +0.000 NA
ATOM      3  C   UNL     1      15.345   5.115   0.644  0.00  0.00    +0.000 A 
ATOM      4  N   UNL     1      16.516   4.411   1.166  0.00  0.00    +0.000 NA
ATOM      5  C   UNL     1      17.574   5.086   0.822  0.00  0.00    +0.000 A 
ATOM      6  N   UNL     1      17.206   6.220   0.091  0.00  0.00    +0.000 N 
ATOM      7  C   UNL     1      15.832   6.251  -0.026  0.00  0.00    +0.000 A 
ATOM      8  C   UNL     1      14.941   7.128  -0.635  0.00  0.00    +0.000 A 
ATOM      9  C   UNL     1      13.588   6.879  -0.583  0.00  0.00    +0.000 A 
ATOM     10 CL   UNL     1      12.453   7.998  -1.376  0.00  0.00    +0.000 Cl
ATOM     11  H   UNL     1      17.850   6.912  -0.293  0.00  0.00    +0.000 HD
ENDROOT
BRANCH   1  15
ATOM     12  C   UNL     1       8.937   4.813   0.261  0.00  0.00    +0.000 A 
ATOM     13  C   UNL     1       9.648   4.907   1.446  0.00  0.00    +0.000 A 
ATOM     14  C   UNL     1      10.951   5.435   1.292  0.00  0.00    +0.000 A 
ATOM     15  C   UNL     1      11.601   5.504   0.145  0.00  0.00    +0.000 A 
ATOM     16  C   UNL     1      10.854   5.335  -0.988  0.00  0.00    +0.000 A 
ATOM     17  C   UNL     1       9.538   4.947  -0.915  0.00  0.00    +0.000 A 
BRANCH  12  21
ATOM     18  C   UNL     1       4.765   3.963   0.601  0.00  0.00    +0.000 A 
ATOM     19  C   UNL     1       5.276   5.063   1.269  0.00  0.00    +0.000 A 
ATOM     20  C   UNL     1       6.609   5.380   0.916  0.00  0.00    +0.000 A 
ATOM     21  C   UNL     1       7.440   4.553   0.310  0.00  0.00    +0.000 A 
ATOM     22  C   UNL     1       6.882   3.449  -0.273  0.00  0.00    +0.000 A 
ATOM     23  C   UNL     1       5.556   3.143  -0.082  0.00  0.00    +0.000 A 
BRANCH  18  27
ATOM     24  S   UNL     1       2.795   2.237   0.914  0.00  0.00    +0.000 S 
ATOM     25  C   UNL     1       3.398   1.661   2.520  0.00  0.00    +0.000 C 
ATOM     26  O   UNL     1       3.305   1.304  -0.187  0.00  0.00    +0.000 OA
ATOM     27  N   UNL     1       3.320   3.699   0.649  0.00  0.00    +0.000 NA
BRANCH  24  28
ATOM     28  N   UNL     1       1.035   2.237   0.914  0.00  0.00    +0.000 NA
ATOM     29  C   UNL     1       0.545   3.133   1.971  0.00  0.00    +0.000 C 
BRANCH  28  31
ATOM     30  C   UNL     1       1.051  -0.053   0.068  0.00  0.00    +0.000 C 
ATOM     31  C   UNL     1       0.545   0.874   1.161  0.00  0.00    +0.000 C 
ENDBRANCH  28  31
ENDBRANCH  24  28
ENDBRANCH  18  27
ENDBRANCH  12  21
ENDBRANCH   1  15
BRANCH   5  32
ATOM     32  O   UNL     1      18.909   4.723   1.143  0.00  0.00    +0.000 OA
BRANCH  32  33
ATOM     33  C   UNL     1      19.163   3.545   1.893  0.00  0.00    +0.000 C 
ATOM     34  C   UNL     1      18.675   2.506   1.197  0.00  0.00    +0.000 C 
ATOM     35  O   UNL     1      17.266   2.324   1.512  0.00  0.00    +0.000 OA
ATOM     36  C   UNL     1      17.042   2.962   2.896  0.00  0.00    +0.000 C 
ATOM     37  C   UNL     1      16.894   1.868   3.932  0.00  0.00    +0.000 C 
ATOM     38  C   UNL     1      18.151   1.492   4.296  0.00  0.00    +0.000 C 
ATOM     39  O   UNL     1      19.054   2.629   4.207  0.00  0.00    +0.000 OA
ATOM     40  C   UNL     1      18.417   3.616   3.210  0.00  0.00    +0.000 C 
BRANCH  37  41
ATOM     41  O   UNL     1      16.168   0.767   3.406  0.00  0.00    +0.000 OA
ATOM     42  H   UNL     1      16.647   0.402   2.608  0.00  0.00    +0.000 HD
ENDBRANCH  37  41
ENDBRANCH  32  33
ENDBRANCH   5  32
TORSDOF 8
