REMARK  Name = 
REMARK  9 active torsions:
REMARK  status: ('A' for Active; 'I' for Inactive)
REMARK    1  A    between atoms: C_1  and  N_2
REMARK    2  A    between atoms: N_5  and  C_6
REMARK    3  A    between atoms: C_6  and  C_7
REMARK    4  A    between atoms: C_7  and  C_8
REMARK    5  A    between atoms: C_8  and  O_9
REMARK    6  A    between atoms: O_9  and  C_10
REMARK    7  A    between atoms: C_13  and  C_14
REMARK    8  A    between atoms: C_17  and  C_18
REMARK    9  A    between atoms: C_18  and  O_20
REMARK                            x       y       z     vdW  Elec       q    Type
REMARK                         _______ _______ _______ _____ _____    ______ ____
ROOT
ATOM      1  C   UNL     1      -1.449   3.696  -3.365  0.00  0.00    +0.000 A 
ATOM      2  C   UNL     1      -1.125   5.007  -3.057  0.00  0.00    +0.000 A 
ATOM      3  C   UNL     1      -0.635   5.750  -4.157  0.00  0.00    +0.000 A 
ATOM      4  C   UNL     1      -0.174   5.218  -5.275  0.00  0.00    +0.000 A 
ATOM      5  C   UNL     1      -0.470   3.901  -5.489  0.00  0.00    +0.000 A 
ATOM      6  C   UNL     1      -1.066   3.142  -4.510  0.00  0.00    +0.000 A 
ENDROOT
BRANCH   4   7
ATOM      7  C   UNL     1       0.643   6.027  -6.269  0.00  0.00    +0.000 A 
ATOM      8  C   UNL     1       1.894   6.535  -5.963  0.00  0.00    +0.000 A 
ATOM      9  C   UNL     1       2.419   7.401  -6.951  0.00  0.00    +0.000 A 
ATOM     10  C   UNL     1       3.502   8.272  -6.572  0.00  0.00    +0.000 A 
ATOM     11  C   UNL     1       4.073   9.174  -7.539  0.00  0.00    +0.000 A 
ATOM     12  N   UNL     1       2.722   8.094  -9.198  0.00  0.00    +0.000 N 
ATOM     13  C   UNL     1       1.985   7.467  -8.196  0.00  0.00    +0.000 A 
ATOM     14  C   UNL     1       0.773   6.886  -8.449  0.00  0.00    +0.000 A 
ATOM     15  C   UNL     1       0.137   6.134  -7.492  0.00  0.00    +0.000 A 
ATOM     16 CL   UNL     1      -1.380   5.295  -7.895  0.00  0.00    +0.000 Cl
ATOM     17  H   UNL     1       2.361   8.128 -10.152  0.00  0.00    +0.000 HD
BRANCH  10  18
ATOM     18  C   UNL     1       4.042   8.239  -5.152  0.00  0.00    +0.000 C 
ATOM     19  O   UNL     1       4.998   9.008  -4.817  0.00  0.00    +0.000 OA
BRANCH  18  20
ATOM     20  O   UNL     1       3.479   7.351  -4.198  0.00  0.00    +0.000 OA
ATOM     21  H   UNL     1       3.834   7.329  -3.264  0.00  0.00    +0.000 HD
ENDBRANCH  18  20
ENDBRANCH  10  18
ENDBRANCH   4   7
BRANCH   1  22
ATOM     22  O   UNL     1      -2.080   2.813  -2.449  0.00  0.00    +0.000 OA
BRANCH  22  23
ATOM     23  C   UNL     1      -1.527   1.528  -2.206  0.00  0.00    +0.000 C 
BRANCH  23  24
ATOM     24  C   UNL     1      -1.485   0.740  -3.505  0.00  0.00    +0.000 C 
BRANCH  24  25
ATOM     25  C   UNL     1      -0.625   1.478  -4.518  0.00  0.00    +0.000 C 
BRANCH  25  30
ATOM     26  C   UNL     1       0.944  -0.032  -0.076  0.00  0.00    +0.000 C 
ATOM     27  N   UNL     1       0.454   0.389  -1.396  0.00  0.00    +0.000 N 
ATOM     28  C   UNL     1      -0.108   1.768  -1.750  0.00  0.00    +0.000 C 
ATOM     29  C   UNL     1       0.700   2.364  -2.767  0.00  0.00    +0.000 C 
ATOM     30  N   UNL     1       0.739   1.624  -3.989  0.00  0.00    +0.000 NA
ATOM     31  C   UNL     1       1.335   0.239  -3.726  0.00  0.00    +0.000 C 
ATOM     32  C   UNL     1       0.496  -0.475  -2.661  0.00  0.00    +0.000 C 
ATOM     33  O   UNL     1      -0.073  -1.603  -2.803  0.00  0.00    +0.000 OA
ENDBRANCH  25  30
ENDBRANCH  24  25
ENDBRANCH  23  24
ENDBRANCH  22  23
ENDBRANCH   1  22
TORSDOF 8
