
 OpenBabel03132514253D

 39 42  0  0  0  0  0  0  0  0999 V2000
    1.0012    0.0663    0.0749 O   0  0  0  0  0  0  0  0  0  0  0  0
    2.2721    0.0663    0.0749 C   0  0  0  0  0  0  0  0  0  0  0  0
    2.9821   -0.9257    0.8017 O   0  0  0  0  0  0  0  0  0  0  0  0
    3.0321    1.1281   -0.7031 C   0  0  0  0  0  0  0  0  0  0  0  0
    4.1924    0.8605   -1.3922 C   0  0  0  0  0  0  0  0  0  0  0  0
    4.7034    2.0097   -1.9341 N   0  0  0  0  0  0  0  0  0  0  0  0
    3.9034    3.0658   -1.5630 C   0  0  0  0  0  0  0  0  0  0  0  0
    4.0707    4.4321   -1.8133 C   0  0  0  0  0  0  0  0  0  0  0  0
    3.1314    5.2707   -1.2470 C   0  0  0  0  0  0  0  0  0  0  0  0
    3.2882    6.9924   -1.4878 Cl  0  0  0  0  0  0  0  0  0  0  0  0
    2.0632    4.8088   -0.4581 C   0  0  0  0  0  0  0  0  0  0  0  0
    1.0773    5.7990    0.1402 C   0  0  0  0  0  0  0  0  0  0  0  0
    0.9239    5.7900    1.5167 C   0  0  0  0  0  0  0  0  0  0  0  0
   -0.2337    6.4664    1.9689 C   0  0  0  0  0  0  0  0  0  0  0  0
   -0.9237    7.3329    1.2499 C   0  0  0  0  0  0  0  0  0  0  0  0
   -1.9375    8.2719    1.8833 C   0  0  0  0  0  0  0  0  0  0  0  0
   -1.2235    8.2970    3.2249 C   0  0  0  0  0  0  0  0  0  0  0  0
   -0.1559    7.6274    3.3893 O   0  0  0  0  0  0  0  0  0  0  0  0
   -1.7494    9.0687    4.2947 O   0  0  0  0  0  0  0  0  0  0  0  0
   -2.6149    9.3882    1.0858 C   0  0  0  0  0  0  0  0  0  0  0  0
   -3.3449    8.0631    1.3190 C   0  0  0  0  0  0  0  0  0  0  0  0
   -0.6772    7.3401   -0.0950 C   0  0  0  0  0  0  0  0  0  0  0  0
    0.3530    6.6040   -0.6284 C   0  0  0  0  0  0  0  0  0  0  0  0
    1.9085    3.4514   -0.2257 C   0  0  0  0  0  0  0  0  0  0  0  0
    2.8316    2.5518   -0.7881 C   0  0  0  0  0  0  0  0  0  0  0  0
    3.9821   -0.9257    0.8017 H   0  0  0  0  0  0  0  0  0  0  0  0
    4.6336   -0.1093   -1.4908 H   0  0  0  0  0  0  0  0  0  0  0  0
    5.5386    2.0723   -2.5163 H   0  0  0  0  0  0  0  0  0  0  0  0
    4.8784    4.8048   -2.4080 H   0  0  0  0  0  0  0  0  0  0  0  0
    1.6178    5.3146    2.1781 H   0  0  0  0  0  0  0  0  0  0  0  0
   -0.5737    6.2616    2.9626 H   0  0  0  0  0  0  0  0  0  0  0  0
   -1.2797    9.0852    5.1774 H   0  0  0  0  0  0  0  0  0  0  0  0
   -2.8401   10.4183    1.2675 H   0  0  0  0  0  0  0  0  0  0  0  0
   -2.2597    9.6384    0.1079 H   0  0  0  0  0  0  0  0  0  0  0  0
   -3.8068    7.3323    0.6885 H   0  0  0  0  0  0  0  0  0  0  0  0
   -4.1859    8.0246    1.9795 H   0  0  0  0  0  0  0  0  0  0  0  0
   -1.2955    7.9273   -0.7413 H   0  0  0  0  0  0  0  0  0  0  0  0
    0.5737    6.6801   -1.6726 H   0  0  0  0  0  0  0  0  0  0  0  0
    1.0978    3.0928    0.3735 H   0  0  0  0  0  0  0  0  0  0  0  0
  1  2  2  0  0  0  0
  2  3  1  0  0  0  0
  2  4  1  0  0  0  0
  3 26  1  0  0  0  0
  4  5  2  0  0  0  0
  4 25  1  0  0  0  0
  5  6  1  0  0  0  0
  5 27  1  0  0  0  0
  6  7  1  0  0  0  0
  6 28  1  0  0  0  0
  7  8  1  0  0  0  0
  7 25  2  0  0  0  0
  8  9  2  0  0  0  0
  8 29  1  0  0  0  0
  9 10  1  0  0  0  0
  9 11  1  0  0  0  0
 11 12  1  0  0  0  0
 11 24  2  0  0  0  0
 12 13  1  0  0  0  0
 12 23  2  0  0  0  0
 13 14  2  0  0  0  0
 13 30  1  0  0  0  0
 14 15  1  0  0  0  0
 14 31  1  0  0  0  0
 15 16  1  0  0  0  0
 15 22  2  0  0  0  0
 16 17  1  0  0  0  0
 16 20  1  0  0  0  0
 16 21  1  0  0  0  0
 17 18  2  0  0  0  0
 17 19  1  0  0  0  0
 19 32  1  0  0  0  0
 20 21  1  0  0  0  0
 20 33  1  0  0  0  0
 20 34  1  0  0  0  0
 21 35  1  0  0  0  0
 21 36  1  0  0  0  0
 22 23  1  0  0  0  0
 22 37  1  0  0  0  0
 23 38  1  0  0  0  0
 24 25  1  0  0  0  0
 24 39  1  0  0  0  0
M  END
