REMARK  Name = 
REMARK  9 active torsions:
REMARK  status: ('A' for Active; 'I' for Inactive)
REMARK    1  A    between atoms: C_1  and  C_2
REMARK    2  A    between atoms: C_4  and  C_5
REMARK    3  A    between atoms: C_6  and  C_7
REMARK    4  A    between atoms: C_7  and  O_8
REMARK    5  A    between atoms: O_8  and  C_9
REMARK    6  A    between atoms: C_18  and  C_20
REMARK    7  A    between atoms: C_29  and  C_30
REMARK    8  A    between atoms: C_30  and  O_32
REMARK    9  A    between atoms: C_35  and  C_36
REMARK                            x       y       z     vdW  Elec       q    Type
REMARK                         _______ _______ _______ _____ _____    ______ ____
ROOT
ATOM      1  C   UNL     1      -3.237   0.906   4.720  0.00  0.00    +0.000 A 
ATOM      2  C   UNL     1      -4.476   1.179   5.264  0.00  0.00    +0.000 A 
ATOM      3  C   UNL     1      -5.454   1.663   4.513  0.00  0.00    +0.000 A 
ATOM      4  C   UNL     1      -5.282   1.907   3.224  0.00  0.00    +0.000 A 
ATOM      5  C   UNL     1      -4.068   1.657   2.614  0.00  0.00    +0.000 A 
ATOM      6  C   UNL     1      -3.024   1.145   3.369  0.00  0.00    +0.000 A 
ATOM      7  C   UNL     1      -3.889   1.925   1.210  0.00  0.00    +0.000 A 
ATOM      8  C   UNL     1      -2.620   1.662   0.582  0.00  0.00    +0.000 A 
ATOM      9  N   UNL     1      -6.337   2.422   2.475  0.00  0.00    +0.000 N 
ATOM     10  C   UNL     1      -6.155   2.696   1.042  0.00  0.00    +0.000 C 
ATOM     11  O   UNL     1      -5.035   2.463   0.487  0.00  0.00    +0.000 OA
ATOM     12  C   UNL     1      -2.431   1.945  -0.899  0.00  0.00    +0.000 C 
ATOM     13  C   UNL     1      -3.418   1.115  -1.703  0.00  0.00    +0.000 C 
ATOM     14  C   UNL     1      -4.837   1.477  -1.295  0.00  0.00    +0.000 C 
ATOM     15  C   UNL     1      -5.040   2.487   0.391  0.00  0.00    +0.000 C 
ENDROOT
BRANCH  10  16
ATOM     16  C   UNL     1      -7.306   3.258   0.224  0.00  0.00    +0.000 A 
ATOM     17  C   UNL     1      -7.592   2.782  -1.040  0.00  0.00    +0.000 A 
ATOM     18  C   UNL     1      -8.572   3.311  -1.756  0.00  0.00    +0.000 A 
ATOM     19  C   UNL     1      -9.313   4.303  -1.291  0.00  0.00    +0.000 A 
ATOM     20 CL   UNL     1     -10.622   4.969  -2.296  0.00  0.00    +0.000 Cl
ATOM     21  C   UNL     1      -9.082   4.828  -0.035  0.00  0.00    +0.000 A 
ATOM     22  C   UNL     1      -8.059   4.302   0.741  0.00  0.00    +0.000 A 
ENDBRANCH  10  16
BRANCH  14  23
ATOM     23  C   UNL     1      -5.824   0.647  -2.099  0.00  0.00    +0.000 C 
ATOM     24  O   UNL     1      -6.634  -0.130  -1.504  0.00  0.00    +0.000 OA
BRANCH  23  25
ATOM     25  O   UNL     1      -5.840   0.740  -3.516  0.00  0.00    +0.000 OA
ATOM     26  H   UNL     1      -6.489   0.194  -4.045  0.00  0.00    +0.000 HD
ENDBRANCH  23  25
ENDBRANCH  14  23
BRANCH   1  27
ATOM     27  O   UNL     1      -2.190   0.340   5.493  0.00  0.00    +0.000 OA
BRANCH  27  28
ATOM     28  C   UNL     1      -0.865   0.831   5.362  0.00  0.00    +0.000 C 
BRANCH  28  34
ATOM     29  C   UNL     1       0.946   0.065  -0.054  0.00  0.00    +0.000 C 
ATOM     30  C   UNL     1       0.440   0.302   1.360  0.00  0.00    +0.000 A 
ATOM     31  N   UNL     1       0.059  -0.759   2.157  0.00  0.00    +0.000 NA
ATOM     32  C   UNL     1      -0.347  -0.559   3.401  0.00  0.00    +0.000 A 
ATOM     33  C   UNL     1      -0.766  -1.751   4.246  0.00  0.00    +0.000 C 
ATOM     34  C   UNL     1      -0.398   0.654   3.927  0.00  0.00    +0.000 A 
ATOM     35  N   UNL     1      -0.032   1.761   3.186  0.00  0.00    +0.000 NA
ATOM     36  C   UNL     1       0.393   1.588   1.877  0.00  0.00    +0.000 A 
ATOM     37  C   UNL     1       0.799   2.782   1.028  0.00  0.00    +0.000 C 
ENDBRANCH  28  34
ENDBRANCH  27  28
ENDBRANCH   1  27
TORSDOF 6
