REMARK  Name = 
REMARK  6 active torsions:
REMARK  status: ('A' for Active; 'I' for Inactive)
REMARK    1  A    between atoms: C_1  and  O_2
REMARK    2  A    between atoms: O_2  and  C_3
REMARK    3  A    between atoms: N_10  and  C_11
REMARK    4  A    between atoms: C_21  and  C_22
REMARK    5  A    between atoms: C_22  and  N_23
REMARK    6  A    between atoms: C_28  and  C_29
REMARK                            x       y       z     vdW  Elec       q    Type
REMARK                         _______ _______ _______ _____ _____    ______ ____
ROOT
ATOM      1  C   UNL     1       0.958   0.885  -2.245  0.00  0.00    +0.000 A 
ATOM      2  C   UNL     1      -0.005   1.217  -3.156  0.00  0.00    +0.000 A 
ATOM      3  C   UNL     1       0.298   2.088  -4.226  0.00  0.00    +0.000 A 
ATOM      4  N   UNL     1      -0.683   2.440  -5.118  0.00  0.00    +0.000 NA
ATOM      5  C   UNL     1      -0.331   3.246  -6.082  0.00  0.00    +0.000 A 
ATOM      6  N   UNL     1       0.915   3.764  -6.306  0.00  0.00    +0.000 NA
ATOM      7  C   UNL     1       1.866   3.425  -5.469  0.00  0.00    +0.000 A 
ATOM      8  N   UNL     1       3.226   3.939  -5.687  0.00  0.00    +0.000 N 
ATOM      9  C   UNL     1       1.619   2.574  -4.356  0.00  0.00    +0.000 A 
ATOM     10  C   UNL     1       2.602   2.205  -3.409  0.00  0.00    +0.000 A 
ATOM     11  C   UNL     1       2.270   1.381  -2.370  0.00  0.00    +0.000 A 
ATOM     12  H   UNL     1       3.977   3.685  -5.045  0.00  0.00    +0.000 HD
ENDROOT
BRANCH   8  13
ATOM     13  C   UNL     1       3.504   4.821  -6.831  0.00  0.00    +0.000 A 
ATOM     14  C   UNL     1       4.543   4.498  -7.679  0.00  0.00    +0.000 A 
ATOM     15  C   UNL     1       4.948   5.369  -8.682  0.00  0.00    +0.000 A 
ATOM     16  C   UNL     1       4.287   6.588  -8.826  0.00  0.00    +0.000 A 
ATOM     17  C   UNL     1       3.246   6.909  -7.976  0.00  0.00    +0.000 A 
ATOM     18 CL   UNL     1       2.392   8.401  -8.173  0.00  0.00    +0.000 Cl
ATOM     19  C   UNL     1       2.871   6.026  -6.989  0.00  0.00    +0.000 A 
ATOM     20  F   UNL     1       1.840   6.340  -6.178  0.00  0.00    +0.000 F 
ENDBRANCH   8  13
BRANCH   1  22
ATOM     21  C   UNL     1       1.089   0.001   0.046  0.00  0.00    +0.000 C 
ATOM     22  O   UNL     1       0.615  -0.106  -1.288  0.00  0.00    +0.000 OA
ENDBRANCH   1  22
BRANCH  11  23
ATOM     23  C   UNL     1       3.324   0.998  -1.344  0.00  0.00    +0.000 C 
BRANCH  23  24
ATOM     24  N   UNL     1       4.430   0.300  -2.015  0.00  0.00    +0.000 NA
ATOM     25  C   UNL     1       3.889  -0.894  -2.676  0.00  0.00    +0.000 C 
ATOM     26  C   UNL     1       4.995  -1.674  -3.353  0.00  0.00    +0.000 C 
ATOM     27  C   UNL     1       5.728  -0.805  -4.372  0.00  0.00    +0.000 C 
ATOM     28  C   UNL     1       6.186   0.499  -3.722  0.00  0.00    +0.000 C 
ATOM     29  C   UNL     1       5.025   1.182  -3.019  0.00  0.00    +0.000 C 
BRANCH  29  30
ATOM     30  C   UNL     1       5.545   2.428  -2.322  0.00  0.00    +0.000 C 
ATOM     31  N   UNL     1       5.014   3.750  -2.686  0.00  0.00    +0.000 N 
ATOM     32  O   UNL     1       6.439   2.328  -1.424  0.00  0.00    +0.000 OA
ATOM     33  H   UNL     1       5.364   4.586  -2.218  0.00  0.00    +0.000 HD
ATOM     34  H   UNL     1       4.297   3.830  -3.406  0.00  0.00    +0.000 HD
ENDBRANCH  29  30
ENDBRANCH  23  24
ENDBRANCH  11  23
TORSDOF 5
