
 OpenBabel03132514253D

 80 84  0  0  0  0  0  0  0  0999 V2000
    1.0565   -0.0486   -0.0666 C   0  0  0  0  0  0  0  0  0  0  0  0
    0.5499   -1.1014   -1.0389 C   0  0  0  0  0  0  0  0  0  0  0  0
    1.0565   -2.4698   -0.6133 C   0  0  0  0  0  0  0  0  0  0  0  0
   -0.9701   -1.1014   -1.0389 C   0  0  0  0  0  0  0  0  0  0  0  0
    1.0565   -0.7858   -2.4368 C   0  0  0  0  0  0  0  0  0  0  0  0
    1.4759   -1.6976   -3.3531 C   0  0  0  0  0  0  0  0  0  0  0  0
    1.7515   -0.9353   -4.4996 C   0  0  0  0  0  0  0  0  0  0  0  0
    2.2331   -1.5099   -5.7640 N   0  0  0  0  0  0  0  0  0  0  0  0
    2.4963   -0.6352   -6.9157 C   0  0  0  0  0  0  0  0  0  0  0  0
    2.9127   -1.1321   -8.0089 O   0  0  0  0  0  0  0  0  0  0  0  0
    2.2780    0.8141   -6.8031 N   0  0  0  0  0  0  0  0  0  0  0  0
    1.7964    1.3887   -5.5386 C   0  0  0  0  0  0  0  0  0  0  0  0
    2.8154    2.3879   -5.0156 C   0  0  0  0  0  0  0  0  0  0  0  0
    3.9507    1.9682   -4.3422 C   0  0  0  0  0  0  0  0  0  0  0  0
    4.6148    3.0009   -3.6390 C   0  0  0  0  0  0  0  0  0  0  0  0
    4.4359    4.2910   -3.8576 C   0  0  0  0  0  0  0  0  0  0  0  0
    5.4044    5.3351   -3.3264 C   0  0  0  0  0  0  0  0  0  0  0  0
    5.1682    6.3583   -2.4820 C   0  0  0  0  0  0  0  0  0  0  0  0
    6.3929    7.0514   -2.3594 C   0  0  0  0  0  0  0  0  0  0  0  0
    6.5933    8.2500   -1.5323 N   0  0  0  0  0  0  0  0  0  0  0  0
    7.9141    8.8930   -1.4778 C   0  0  0  0  0  0  0  0  0  0  0  0
    8.0873    9.9293   -0.7627 O   0  0  0  0  0  0  0  0  0  0  0  0
    9.0726    8.3185   -2.2765 C   0  0  0  0  0  0  0  0  0  0  0  0
   10.2916    8.1613   -1.6379 C   0  0  0  0  0  0  0  0  0  0  0  0
   11.3629    7.8629   -2.5128 C   0  0  0  0  0  0  0  0  0  0  0  0
   11.2195    7.4132   -3.7462 C   0  0  0  0  0  0  0  0  0  0  0  0
   12.3008    6.8344   -4.4619 O   0  0  0  0  0  0  0  0  0  0  0  0
   12.1039    6.3631   -5.7869 C   0  0  0  0  0  0  0  0  0  0  0  0
   11.0409    5.2766   -5.7854 C   0  0  0  0  0  0  0  0  0  0  0  0
    9.7793    5.8260   -5.2682 N   0  0  0  0  0  0  0  0  0  0  0  0
    8.8750    4.6685   -5.3950 C   0  0  0  0  0  0  0  0  0  0  0  0
    8.8075    4.2406   -6.8438 C   0  0  0  0  0  0  0  0  0  0  0  0
    8.3692    5.3151   -7.6751 O   0  0  0  0  0  0  0  0  0  0  0  0
    9.2749    6.4137   -7.5675 C   0  0  0  0  0  0  0  0  0  0  0  0
    9.3399    6.9317   -6.1432 C   0  0  0  0  0  0  0  0  0  0  0  0
    9.9741    7.5350   -4.2970 C   0  0  0  0  0  0  0  0  0  0  0  0
    8.9036    7.9455   -3.5397 C   0  0  0  0  0  0  0  0  0  0  0  0
    7.3353    6.4772   -3.0886 N   0  0  0  0  0  0  0  0  0  0  0  0
    6.7139    5.4179   -3.6881 N   0  0  0  0  0  0  0  0  0  0  0  0
    3.3327    4.6368   -4.5874 C   0  0  0  0  0  0  0  0  0  0  0  0
    2.5592    3.6782   -5.1963 C   0  0  0  0  0  0  0  0  0  0  0  0
    1.5319    0.3490   -4.3190 N   0  0  0  0  0  0  0  0  0  0  0  0
    1.0911    0.4558   -2.9853 O   0  0  0  0  0  0  0  0  0  0  0  0
    0.6999   -0.2708    0.9174 H   0  0  0  0  0  0  0  0  0  0  0  0
    0.6999    0.9146   -0.3662 H   0  0  0  0  0  0  0  0  0  0  0  0
    2.1265   -0.0486   -0.0666 H   0  0  0  0  0  0  0  0  0  0  0  0
    0.6998   -2.6920    0.3707 H   0  0  0  0  0  0  0  0  0  0  0  0
    0.6998   -3.2110   -1.2977 H   0  0  0  0  0  0  0  0  0  0  0  0
    2.1265   -2.4699   -0.6133 H   0  0  0  0  0  0  0  0  0  0  0  0
   -1.3268   -0.1381   -1.3385 H   0  0  0  0  0  0  0  0  0  0  0  0
   -1.3268   -1.8425   -1.7233 H   0  0  0  0  0  0  0  0  0  0  0  0
   -1.3268   -1.3236   -0.0549 H   0  0  0  0  0  0  0  0  0  0  0  0
    1.5737   -2.7559   -3.2291 H   0  0  0  0  0  0  0  0  0  0  0  0
    2.3846   -2.5156   -5.8422 H   0  0  0  0  0  0  0  0  0  0  0  0
    2.4606    1.4210   -7.6022 H   0  0  0  0  0  0  0  0  0  0  0  0
    0.8631    1.8850   -5.7050 H   0  0  0  0  0  0  0  0  0  0  0  0
    1.6617    0.6073   -4.8202 H   0  0  0  0  0  0  0  0  0  0  0  0
    4.2944    0.9550   -4.3529 H   0  0  0  0  0  0  0  0  0  0  0  0
    5.3103    2.7169   -2.8770 H   0  0  0  0  0  0  0  0  0  0  0  0
    4.2420    6.5971   -2.0024 H   0  0  0  0  0  0  0  0  0  0  0  0
    5.8158    8.6356   -0.9963 H   0  0  0  0  0  0  0  0  0  0  0  0
   10.4123    8.2568   -0.5790 H   0  0  0  0  0  0  0  0  0  0  0  0
   12.3583    8.0119   -2.1498 H   0  0  0  0  0  0  0  0  0  0  0  0
   11.7855    7.1727   -6.4098 H   0  0  0  0  0  0  0  0  0  0  0  0
   13.0221    5.9632   -6.1633 H   0  0  0  0  0  0  0  0  0  0  0  0
   10.8925    4.9215   -6.7838 H   0  0  0  0  0  0  0  0  0  0  0  0
   11.3593    4.4669   -5.1625 H   0  0  0  0  0  0  0  0  0  0  0  0
    7.8970    4.9402   -5.0565 H   0  0  0  0  0  0  0  0  0  0  0  0
    9.2452    3.8595   -4.8006 H   0  0  0  0  0  0  0  0  0  0  0  0
    9.7866    3.9445   -7.1577 H   0  0  0  0  0  0  0  0  0  0  0  0
    8.1214    3.4247   -6.9360 H   0  0  0  0  0  0  0  0  0  0  0  0
    8.9272    7.2034   -8.2003 H   0  0  0  0  0  0  0  0  0  0  0  0
   10.2505    6.0926   -7.8673 H   0  0  0  0  0  0  0  0  0  0  0  0
    8.3786    7.2864   -5.8352 H   0  0  0  0  0  0  0  0  0  0  0  0
   10.0385    7.7400   -6.0836 H   0  0  0  0  0  0  0  0  0  0  0  0
    9.8309    7.3075   -5.3327 H   0  0  0  0  0  0  0  0  0  0  0  0
    7.9248    7.9647   -3.9717 H   0  0  0  0  0  0  0  0  0  0  0  0
    7.1743    4.7699   -4.3272 H   0  0  0  0  0  0  0  0  0  0  0  0
    3.0678    5.6689   -4.6859 H   0  0  0  0  0  0  0  0  0  0  0  0
    1.7430    3.9742   -5.8217 H   0  0  0  0  0  0  0  0  0  0  0  0
  1  2  1  0  0  0  0
  1 44  1  0  0  0  0
  1 45  1  0  0  0  0
  1 46  1  0  0  0  0
  2  3  1  0  0  0  0
  2  4  1  0  0  0  0
  2  5  1  0  0  0  0
  3 47  1  0  0  0  0
  3 48  1  0  0  0  0
  3 49  1  0  0  0  0
  4 50  1  0  0  0  0
  4 51  1  0  0  0  0
  4 52  1  0  0  0  0
  5  6  2  0  0  0  0
  5 43  1  0  0  0  0
  6  7  1  0  0  0  0
  6 53  1  0  0  0  0
  7  8  1  0  0  0  0
  7 42  2  0  0  0  0
  8  9  1  0  0  0  0
  8 54  1  0  0  0  0
  9 10  2  0  0  0  0
  9 11  1  0  0  0  0
 11 12  1  0  0  0  0
 11 55  1  0  0  0  0
 12 13  1  0  0  0  0
 12 56  1  0  0  0  0
 12 57  1  0  0  0  0
 13 14  1  0  0  0  0
 13 41  2  0  0  0  0
 14 15  2  0  0  0  0
 14 58  1  0  0  0  0
 15 16  1  0  0  0  0
 15 59  1  0  0  0  0
 16 17  1  0  0  0  0
 16 40  2  0  0  0  0
 17 18  2  0  0  0  0
 17 39  1  0  0  0  0
 18 19  1  0  0  0  0
 18 60  1  0  0  0  0
 19 20  1  0  0  0  0
 19 38  2  0  0  0  0
 20 21  1  0  0  0  0
 20 61  1  0  0  0  0
 21 22  2  0  0  0  0
 21 23  1  0  0  0  0
 23 24  1  0  0  0  0
 23 37  2  0  0  0  0
 24 25  2  0  0  0  0
 24 62  1  0  0  0  0
 25 26  1  0  0  0  0
 25 63  1  0  0  0  0
 26 27  1  0  0  0  0
 26 36  2  0  0  0  0
 27 28  1  0  0  0  0
 28 29  1  0  0  0  0
 28 64  1  0  0  0  0
 28 65  1  0  0  0  0
 29 30  1  0  0  0  0
 29 66  1  0  0  0  0
 29 67  1  0  0  0  0
 30 31  1  0  0  0  0
 30 35  1  0  0  0  0
 31 32  1  0  0  0  0
 31 68  1  0  0  0  0
 31 69  1  0  0  0  0
 32 33  1  0  0  0  0
 32 70  1  0  0  0  0
 32 71  1  0  0  0  0
 33 34  1  0  0  0  0
 34 35  1  0  0  0  0
 34 72  1  0  0  0  0
 34 73  1  0  0  0  0
 35 74  1  0  0  0  0
 35 75  1  0  0  0  0
 36 37  1  0  0  0  0
 36 76  1  0  0  0  0
 37 77  1  0  0  0  0
 38 39  1  0  0  0  0
 39 78  1  0  0  0  0
 40 41  1  0  0  0  0
 40 79  1  0  0  0  0
 41 80  1  0  0  0  0
 42 43  1  0  0  0  0
M  END
