REMARK  Name = 
REMARK  7 active torsions:
REMARK  status: ('A' for Active; 'I' for Inactive)
REMARK    1  A    between atoms: C_2  and  O_3
REMARK    2  A    between atoms: C_2  and  C_4
REMARK    3  A    between atoms: N_6  and  C_7
REMARK    4  A    between atoms: C_7  and  C_8
REMARK    5  A    between atoms: C_11  and  O_12
REMARK    6  A    between atoms: O_12  and  C_13
REMARK    7  A    between atoms: C_13  and  C_14
REMARK                            x       y       z     vdW  Elec       q    Type
REMARK                         _______ _______ _______ _____ _____    ______ ____
ROOT
ATOM      1  C   UNL     1       5.188  -1.599   2.463  0.00  0.00    +0.000 A 
ATOM      2  C   UNL     1       6.122  -2.499   1.978  0.00  0.00    +0.000 A 
ATOM      3  C   UNL     1       7.209  -1.891   1.306  0.00  0.00    +0.000 A 
ATOM      4  C   UNL     1       7.207  -0.654   0.845  0.00  0.00    +0.000 A 
ATOM      5  C   UNL     1       6.218   0.167   1.310  0.00  0.00    +0.000 A 
ATOM      6  C   UNL     1       5.193  -0.328   2.080  0.00  0.00    +0.000 A 
ENDROOT
BRANCH   1   7
ATOM      7  C   UNL     1       4.101  -2.066   3.418  0.00  0.00    +0.000 C 
BRANCH   7  10
ATOM      8  C   UNL     1       3.086  -0.675   1.067  0.00  0.00    +0.000 C 
ATOM      9  C   UNL     1       2.466  -0.394   2.447  0.00  0.00    +0.000 C 
ATOM     10  N   UNL     1       2.784  -1.855   2.801  0.00  0.00    +0.000 NA
ATOM     11  C   UNL     1       2.724  -2.155   1.294  0.00  0.00    +0.000 C 
BRANCH   8  13
ATOM     12  O   UNL     1       1.055  -0.028  -0.079  0.00  0.00    +0.000 OA
ATOM     13  C   UNL     1       2.326  -0.028  -0.079  0.00  0.00    +0.000 C 
BRANCH  13  14
ATOM     14  O   UNL     1       3.036   0.577  -1.149  0.00  0.00    +0.000 OA
ATOM     15  H   UNL     1       4.036   0.577  -1.149  0.00  0.00    +0.000 HD
ENDBRANCH  13  14
ENDBRANCH   8  13
ENDBRANCH   7  10
ENDBRANCH   1   7
BRANCH   4  16
ATOM     16  O   UNL     1       8.180  -0.201  -0.085  0.00  0.00    +0.000 OA
BRANCH  16  17
ATOM     17  C   UNL     1       8.142   1.138  -0.557  0.00  0.00    +0.000 C 
BRANCH  17  18
ATOM     18  C   UNL     1       6.817   1.390  -1.259  0.00  0.00    +0.000 A 
ATOM     19  C   UNL     1       6.452   2.690  -1.568  0.00  0.00    +0.000 A 
ATOM     20  C   UNL     1       5.098   2.829  -1.953  0.00  0.00    +0.000 A 
ATOM     21  C   UNL     1       4.324   1.833  -2.344  0.00  0.00    +0.000 A 
ATOM     22 CL   UNL     1       2.781   2.118  -3.184  0.00  0.00    +0.000 Cl
ATOM     23  C   UNL     1       4.773   0.571  -2.070  0.00  0.00    +0.000 A 
ATOM     24 CL   UNL     1       3.706  -0.823  -2.365  0.00  0.00    +0.000 Cl
ATOM     25  C   UNL     1       6.036   0.363  -1.570  0.00  0.00    +0.000 A 
ENDBRANCH  17  18
ENDBRANCH  16  17
ENDBRANCH   4  16
TORSDOF 7
