REMARK  Name = 
REMARK  4 active torsions:
REMARK  status: ('A' for Active; 'I' for Inactive)
REMARK    1  A    between atoms: C_1  and  C_2
REMARK    2  A    between atoms: C_4  and  C_5
REMARK    3  A    between atoms: C_6  and  C_7
REMARK    4  A    between atoms: C_15  and  C_16
REMARK                            x       y       z     vdW  Elec       q    Type
REMARK                         _______ _______ _______ _____ _____    ______ ____
ROOT
ATOM      1  C   UNL     1      -1.507  -2.438   0.021  0.00  0.00    +0.000 C 
ATOM      2  C   UNL     1      -1.374  -3.317   1.029  0.00  0.00    +0.000 C 
ATOM      3  C   UNL     1      -0.468  -3.037   2.184  0.00  0.00    +0.000 C 
ATOM      4  O   UNL     1       0.274  -2.068   2.350  0.00  0.00    +0.000 OA
ATOM      5  N   UNL     1      -0.615  -4.060   3.062  0.00  0.00    +0.000 N 
ATOM      6  C   UNL     1      -1.528  -5.009   2.588  0.00  0.00    +0.000 A 
ATOM      7  C   UNL     1      -1.906  -6.171   3.219  0.00  0.00    +0.000 A 
ATOM      8  C   UNL     1      -2.797  -7.003   2.549  0.00  0.00    +0.000 A 
ATOM      9  C   UNL     1      -3.242  -6.657   1.280  0.00  0.00    +0.000 A 
ATOM     10  C   UNL     1      -2.863  -5.466   0.674  0.00  0.00    +0.000 A 
ATOM     11  C   UNL     1      -2.002  -4.603   1.340  0.00  0.00    +0.000 A 
ATOM     12  H   UNL     1      -0.123  -4.129   3.953  0.00  0.00    +0.000 HD
ENDROOT
BRANCH   9  13
ATOM     13  C   UNL     1      -4.168  -7.605   0.536  0.00  0.00    +0.000 A 
ATOM     14  C   UNL     1      -5.343  -7.963   1.179  0.00  0.00    +0.000 A 
ATOM     15  C   UNL     1      -6.185  -8.909   0.621  0.00  0.00    +0.000 A 
ATOM     16  C   UNL     1      -5.852  -9.482  -0.610  0.00  0.00    +0.000 A 
ATOM     17  C   UNL     1      -6.677 -10.466  -1.285  0.00  0.00    +0.000 A 
ATOM     18  N   UNL     1      -6.467 -10.902  -2.475  0.00  0.00    +0.000 NA
ATOM     19  N   UNL     1      -5.356 -10.421  -3.161  0.00  0.00    +0.000 N 
ATOM     20  C   UNL     1      -4.389  -9.598  -2.619  0.00  0.00    +0.000 A 
ATOM     21  O   UNL     1      -3.374  -9.301  -3.245  0.00  0.00    +0.000 OA
ATOM     22  C   UNL     1      -4.689  -9.092  -1.277  0.00  0.00    +0.000 A 
ATOM     23  C   UNL     1      -3.841  -8.157  -0.674  0.00  0.00    +0.000 A 
ATOM     24  H   UNL     1      -5.249 -10.697  -4.137  0.00  0.00    +0.000 HD
ENDBRANCH   9  13
BRANCH   1  30
ATOM     25  C   UNL     1       2.549   0.571   0.010  0.00  0.00    +0.000 C 
ATOM     26  C   UNL     1       1.104   0.209  -0.007  0.00  0.00    +0.000 A 
ATOM     27  C   UNL     1      -0.023   0.993  -0.008  0.00  0.00    +0.000 A 
ATOM     28  C   UNL     1      -1.160   0.120   0.013  0.00  0.00    +0.000 A 
ATOM     29  C   UNL     1      -2.606   0.547  -0.004  0.00  0.00    +0.000 C 
ATOM     30  C   UNL     1      -0.676  -1.165   0.008  0.00  0.00    +0.000 A 
ATOM     31  N   UNL     1       0.696  -1.092  -0.011  0.00  0.00    +0.000 N 
ATOM     32  H   UNL     1       1.321  -1.898  -0.026  0.00  0.00    +0.000 HD
ENDBRANCH   1  30
TORSDOF 2
