REMARK  Name = 
REMARK  6 active torsions:
REMARK  status: ('A' for Active; 'I' for Inactive)
REMARK    1  A    between atoms: C_4  and  C_5
REMARK    2  A    between atoms: C_10  and  C_11
REMARK    3  A    between atoms: C_14  and  O_15
REMARK    4  A    between atoms: O_15  and  C_16
REMARK    5  A    between atoms: C_16  and  C_17
REMARK    6  A    between atoms: C_17  and  N_18
REMARK                            x       y       z     vdW  Elec       q    Type
REMARK                         _______ _______ _______ _____ _____    ______ ____
ROOT
ATOM      1  C   UNL     1      -2.062  -2.435  -0.053  0.00  0.00    +0.000 A 
ATOM      2  C   UNL     1      -2.975  -2.849  -1.071  0.00  0.00    +0.000 A 
ATOM      3  N   UNL     1      -3.596  -4.039  -0.850  0.00  0.00    +0.000 NA
ATOM      4  N   UNL     1      -3.054  -4.422   0.368  0.00  0.00    +0.000 N 
ATOM      5  C   UNL     1      -3.331  -5.571   1.042  0.00  0.00    +0.000 A 
ATOM      6  C   UNL     1      -2.677  -5.780   2.257  0.00  0.00    +0.000 A 
ATOM      7  C   UNL     1      -1.789  -4.758   2.786  0.00  0.00    +0.000 A 
ATOM      8  N   UNL     1      -1.503  -3.654   2.067  0.00  0.00    +0.000 NA
ATOM      9  C   UNL     1      -2.127  -3.441   0.882  0.00  0.00    +0.000 A 
ENDROOT
BRANCH   1  13
ATOM     10  N   UNL     1       2.246  -0.077  -0.031  0.00  0.00    +0.000 N 
ATOM     11  C   UNL     1       0.919  -0.078   0.007  0.00  0.00    +0.000 A 
ATOM     12  C   UNL     1       0.157  -1.277   0.047  0.00  0.00    +0.000 A 
ATOM     13  C   UNL     1      -1.214  -1.174  -0.014  0.00  0.00    +0.000 A 
ATOM     14  C   UNL     1      -1.833   0.074  -0.040  0.00  0.00    +0.000 A 
ATOM     15  C   UNL     1      -1.016   1.214   0.026  0.00  0.00    +0.000 A 
ATOM     16  N   UNL     1       0.314   1.142   0.009  0.00  0.00    +0.000 NA
ATOM     17  H   UNL     1       2.755   0.807  -0.057  0.00  0.00    +0.000 HD
ATOM     18  H   UNL     1       2.757  -0.960  -0.035  0.00  0.00    +0.000 HD
ENDBRANCH   1  13
BRANCH   6  19
ATOM     19  C   UNL     1      -2.893  -7.074   3.025  0.00  0.00    +0.000 A 
ATOM     20  C   UNL     1      -2.663  -8.267   2.361  0.00  0.00    +0.000 A 
ATOM     21  C   UNL     1      -3.268  -9.391   2.973  0.00  0.00    +0.000 A 
ATOM     22  C   UNL     1      -3.699  -9.422   4.220  0.00  0.00    +0.000 A 
ATOM     23  C   UNL     1      -3.841  -8.214   4.845  0.00  0.00    +0.000 A 
ATOM     24  C   UNL     1      -3.393  -7.056   4.255  0.00  0.00    +0.000 A 
BRANCH  22  25
ATOM     25  O   UNL     1      -4.000 -10.644   4.878  0.00  0.00    +0.000 OA
BRANCH  25  26
ATOM     26  C   UNL     1      -4.462 -10.633   6.221  0.00  0.00    +0.000 C 
BRANCH  26  27
ATOM     27  C   UNL     1      -3.414  -9.985   7.111  0.00  0.00    +0.000 C 
BRANCH  27  28
ATOM     28  N   UNL     1      -3.176  -8.605   6.664  0.00  0.00    +0.000 NA
ATOM     29  C   UNL     1      -2.078  -8.336   7.610  0.00  0.00    +0.000 C 
ATOM     30  C   UNL     1      -2.652  -8.084   8.986  0.00  0.00    +0.000 C 
ATOM     31  O   UNL     1      -3.577  -6.996   8.964  0.00  0.00    +0.000 OA
ATOM     32  C   UNL     1      -4.651  -7.289   8.070  0.00  0.00    +0.000 C 
ATOM     33  C   UNL     1      -4.144  -7.491   6.654  0.00  0.00    +0.000 C 
ENDBRANCH  27  28
ENDBRANCH  26  27
ENDBRANCH  25  26
ENDBRANCH  22  25
ENDBRANCH   6  19
TORSDOF 6
