REMARK  Name = 
REMARK  5 active torsions:
REMARK  status: ('A' for Active; 'I' for Inactive)
REMARK    1  A    between atoms: C_1  and  O_2
REMARK    2  A    between atoms: O_2  and  C_3
REMARK    3  A    between atoms: C_3  and  C_5
REMARK    4  A    between atoms: C_12  and  C_13
REMARK    5  A    between atoms: C_17  and  O_18
REMARK                            x       y       z     vdW  Elec       q    Type
REMARK                         _______ _______ _______ _____ _____    ______ ____
ROOT
ATOM      1  C   UNL     1       0.301   3.158   2.151  0.00  0.00    +0.000 A 
ATOM      2  C   UNL     1       1.226   3.941   2.826  0.00  0.00    +0.000 A 
ATOM      3  C   UNL     1       0.856   5.196   3.297  0.00  0.00    +0.000 A 
ATOM      4  C   UNL     1      -0.444   5.592   3.090  0.00  0.00    +0.000 A 
ATOM      5  C   UNL     1      -1.415   4.806   2.467  0.00  0.00    +0.000 A 
ATOM      6  C   UNL     1      -1.013   3.571   1.974  0.00  0.00    +0.000 A 
ATOM      7  C   UNL     1      -2.660   5.575   2.453  0.00  0.00    +0.000 C 
ATOM      8  C   UNL     1      -3.917   5.303   2.060  0.00  0.00    +0.000 C 
ATOM      9  C   UNL     1      -2.316   6.885   3.084  0.00  0.00    +0.000 C 
ATOM     10  O   UNL     1      -3.052   7.855   3.273  0.00  0.00    +0.000 OA
ATOM     11  N   UNL     1      -1.009   6.823   3.441  0.00  0.00    +0.000 N 
ATOM     12  H   UNL     1      -0.503   7.577   3.906  0.00  0.00    +0.000 HD
ENDROOT
BRANCH   8  13
ATOM     13  C   UNL     1      -4.254   3.936   1.487  0.00  0.00    +0.000 A 
ATOM     14  C   UNL     1      -4.040   2.819   2.303  0.00  0.00    +0.000 A 
ATOM     15  C   UNL     1      -4.287   1.523   1.836  0.00  0.00    +0.000 A 
ATOM     16 BR   UNL     1      -4.033   0.034   2.988  0.00  0.00    +0.000 Br
ATOM     17  C   UNL     1      -4.746   1.290   0.553  0.00  0.00    +0.000 A 
ATOM     18  C   UNL     1      -4.896   2.399  -0.270  0.00  0.00    +0.000 A 
ATOM     19 BR   UNL     1      -5.483   2.116  -2.060  0.00  0.00    +0.000 Br
ATOM     20  C   UNL     1      -4.662   3.694   0.177  0.00  0.00    +0.000 A 
BRANCH  17  21
ATOM     21  O   UNL     1      -5.045   0.014   0.184  0.00  0.00    +0.000 OA
ATOM     22  H   UNL     1      -4.911  -0.737   0.830  0.00  0.00    +0.000 HD
ENDBRANCH  17  21
ENDBRANCH   8  13
BRANCH   1  23
ATOM     23  C   UNL     1       0.808   1.804   1.682  0.00  0.00    +0.000 C 
ATOM     24  O   UNL     1       1.538   1.099   2.446  0.00  0.00    +0.000 OA
BRANCH  23  26
ATOM     25  C   UNL     1       0.938   0.061  -0.049  0.00  0.00    +0.000 C 
ATOM     26  O   UNL     1       0.465   1.327   0.389  0.00  0.00    +0.000 OA
ENDBRANCH  23  26
ENDBRANCH   1  23
TORSDOF 4
