REMARK  Name = 
REMARK  6 active torsions:
REMARK  status: ('A' for Active; 'I' for Inactive)
REMARK    1  A    between atoms: C_1  and  C_2
REMARK    2  A    between atoms: C_3  and  C_4
REMARK    3  A    between atoms: C_6  and  N_7
REMARK    4  A    between atoms: N_15  and  C_16
REMARK    5  A    between atoms: C_26  and  N_27
REMARK    6  A    between atoms: C_28  and  C_30
REMARK                            x       y       z     vdW  Elec       q    Type
REMARK                         _______ _______ _______ _____ _____    ______ ____
ROOT
ATOM      1  C   UNL     1       2.567   1.242   0.054  0.00  0.00    +0.000 C 
ATOM      2  C   UNL     1       1.343   0.362  -0.025  0.00  0.00    +0.000 A 
ATOM      3  C   UNL     1       1.417  -1.045  -0.062  0.00  0.00    +0.000 A 
ATOM      4  C   UNL     1       0.231  -1.788   0.004  0.00  0.00    +0.000 A 
ATOM      5  C   UNL     1      -1.046  -1.214   0.064  0.00  0.00    +0.000 A 
ATOM      6  C   UNL     1      -1.049   0.176   0.011  0.00  0.00    +0.000 A 
ATOM      7  F   UNL     1      -2.244   0.830  -0.018  0.00  0.00    +0.000 F 
ATOM      8  C   UNL     1       0.086   0.954  -0.018  0.00  0.00    +0.000 A 
ENDROOT
BRANCH   3   9
ATOM      9  C   UNL     1       2.762  -1.745  -0.172  0.00  0.00    +0.000 A 
ATOM     10  C   UNL     1       3.735  -1.528   0.857  0.00  0.00    +0.000 A 
ATOM     11  C   UNL     1       4.949  -2.107   0.747  0.00  0.00    +0.000 A 
ATOM     12  C   UNL     1       5.261  -2.957  -0.374  0.00  0.00    +0.000 A 
ATOM     13  O   UNL     1       6.349  -3.506  -0.577  0.00  0.00    +0.000 OA
ATOM     14  N   UNL     1       4.206  -3.124  -1.269  0.00  0.00    +0.000 N 
ATOM     15  N   UNL     1       2.984  -2.517  -1.195  0.00  0.00    +0.000 NA
ATOM     16  H   UNL     1       4.360  -3.758  -2.053  0.00  0.00    +0.000 HD
BRANCH  11  17
ATOM     17  N   UNL     1       5.963  -1.869   1.784  0.00  0.00    +0.000 N 
ATOM     18  C   UNL     1       5.653  -1.004   2.931  0.00  0.00    +0.000 A 
ATOM     19  C   UNL     1       4.674  -1.194   3.837  0.00  0.00    +0.000 A 
ATOM     20  C   UNL     1       4.870  -0.270   4.844  0.00  0.00    +0.000 A 
ATOM     21  N   UNL     1       5.992   0.466   4.483  0.00  0.00    +0.000 N 
ATOM     22  N   UNL     1       6.425  -0.021   3.316  0.00  0.00    +0.000 NA
ATOM     23  C   UNL     1       6.424   1.481   5.320  0.00  0.00    +0.000 C 
ATOM     24  C   UNL     1       5.760   1.743   6.462  0.00  0.00    +0.000 C 
ATOM     25  N   UNL     1       4.674   1.040   6.823  0.00  0.00    +0.000 NA
ATOM     26  C   UNL     1       3.577   2.008   6.964  0.00  0.00    +0.000 C 
ATOM     27  C   UNL     1       4.205   0.039   6.050  0.00  0.00    +0.000 C 
ATOM     28  H   UNL     1       6.883  -2.304   1.707  0.00  0.00    +0.000 HD
ENDBRANCH  11  17
ENDBRANCH   3   9
BRANCH   8  29
ATOM     29  N   UNL     1      -0.032   2.419  -0.042  0.00  0.00    +0.000 N 
ATOM     30  C   UNL     1      -1.360   3.049  -0.034  0.00  0.00    +0.000 C 
ATOM     31  O   UNL     1      -1.462   4.316  -0.055  0.00  0.00    +0.000 OA
ATOM     32  H   UNL     1       0.807   2.998  -0.063  0.00  0.00    +0.000 HD
BRANCH  30  33
ATOM     33  C   UNL     1      -2.611   2.186  -0.002  0.00  0.00    +0.000 A 
ATOM     34  C   UNL     1      -2.822   1.109   0.792  0.00  0.00    +0.000 A 
ATOM     35  C   UNL     1      -4.066   0.663   0.491  0.00  0.00    +0.000 A 
ATOM     36  C   UNL     1      -4.735  -0.465   1.087  0.00  0.00    +0.000 A 
ATOM     37  C   UNL     1      -6.064  -0.821   0.662  0.00  0.00    +0.000 A 
ATOM     38  C   UNL     1      -6.733  -1.948   1.258  0.00  0.00    +0.000 A 
ATOM     39  C   UNL     1      -5.848   1.314  -1.039  0.00  0.00    +0.000 A 
ATOM     40  C   UNL     1      -4.546   1.444  -0.438  0.00  0.00    +0.000 A 
ATOM     41  S   UNL     1      -3.680   2.347  -0.734  0.00  0.00    +0.000 S 
ENDBRANCH  30  33
ENDBRANCH   8  29
TORSDOF 4
