REMARK  Name = 
REMARK  4 active torsions:
REMARK  status: ('A' for Active; 'I' for Inactive)
REMARK    1  A    between atoms: C_1  and  C_2
REMARK    2  A    between atoms: C_2  and  C_3
REMARK    3  A    between atoms: C_2  and  N_4
REMARK    4  A    between atoms: C_6  and  C_7
REMARK                            x       y       z     vdW  Elec       q    Type
REMARK                         _______ _______ _______ _____ _____    ______ ____
ROOT
ATOM      1  N   UNL     1      -0.899   0.083  -1.426  0.00  0.00    +0.000 N 
ATOM      2  N   UNL     1      -1.670  -0.701  -0.699  0.00  0.00    +0.000 NA
ATOM      3  C   UNL     1      -2.948  -0.445  -0.938  0.00  0.00    +0.000 A 
ATOM      4  C   UNL     1      -3.025   0.530  -1.842  0.00  0.00    +0.000 A 
ATOM      5  C   UNL     1      -4.080   1.217  -2.480  0.00  0.00    +0.000 A 
ATOM      6  N   UNL     1      -5.477   0.881  -2.173  0.00  0.00    +0.000 N 
ATOM      7  N   UNL     1      -3.793   2.185  -3.377  0.00  0.00    +0.000 NA
ATOM      8  C   UNL     1      -2.510   2.512  -3.686  0.00  0.00    +0.000 A 
ATOM      9  N   UNL     1      -1.460   1.892  -3.103  0.00  0.00    +0.000 NA
ATOM     10  C   UNL     1      -1.685   0.881  -2.166  0.00  0.00    +0.000 A 
ATOM     11  H   UNL     1      -5.689   0.149  -1.495  0.00  0.00    +0.000 HD
ATOM     12  H   UNL     1      -6.236   1.381  -2.637  0.00  0.00    +0.000 HD
ENDROOT
BRANCH   3  13
ATOM     13  C   UNL     1      -4.129  -1.148  -0.289  0.00  0.00    +0.000 A 
ATOM     14  C   UNL     1      -5.005  -1.857  -1.087  0.00  0.00    +0.000 A 
ATOM     15  C   UNL     1      -6.026  -2.511  -0.555  0.00  0.00    +0.000 A 
ATOM     16  C   UNL     1      -6.241  -2.517   0.750  0.00  0.00    +0.000 A 
ATOM     17  N   UNL     1      -7.324  -3.225   1.265  0.00  0.00    +0.000 NA
ATOM     18  C   UNL     1      -7.558  -3.238   2.638  0.00  0.00    +0.000 A 
ATOM     19  C   UNL     1      -6.680  -2.518   3.525  0.00  0.00    +0.000 A 
ATOM     20  C   UNL     1      -5.645  -1.842   3.027  0.00  0.00    +0.000 A 
ATOM     21  C   UNL     1      -5.404  -1.830   1.608  0.00  0.00    +0.000 A 
ATOM     22  C   UNL     1      -4.328  -1.128   1.084  0.00  0.00    +0.000 A 
ENDBRANCH   3  13
BRANCH   1  24
ATOM     23  C   UNL     1       1.078  -0.063   0.000  0.00  0.00    +0.000 C 
ATOM     24  C   UNL     1       0.571   0.083  -1.426  0.00  0.00    +0.000 C 
ATOM     25  C   UNL     1       1.078  -1.079  -2.264  0.00  0.00    +0.000 C 
ENDBRANCH   1  24
TORSDOF 2
