REMARK  Name = 
REMARK  3 active torsions:
REMARK  status: ('A' for Active; 'I' for Inactive)
REMARK    1  A    between atoms: C_1  and  C_2
REMARK    2  A    between atoms: C_3  and  C_4
REMARK    3  A    between atoms: C_12  and  C_13
REMARK                            x       y       z     vdW  Elec       q    Type
REMARK                         _______ _______ _______ _____ _____    ______ ____
ROOT
ATOM      1  C   UNL     1       2.291   0.000  -0.005  0.00  0.00    +0.000 C 
ATOM      2  C   UNL     1       0.780  -0.023   0.002  0.00  0.00    +0.000 A 
ATOM      3  C   UNL     1      -0.045   1.138   0.003  0.00  0.00    +0.000 A 
ATOM      4  C   UNL     1      -1.379   0.730   0.000  0.00  0.00    +0.000 A 
ATOM      5  N   UNL     1      -1.356  -0.633  -0.007  0.00  0.00    +0.000 N 
ATOM      6  C   UNL     1      -0.066  -1.107   0.009  0.00  0.00    +0.000 A 
ATOM      7  H   UNL     1      -2.187  -1.224  -0.022  0.00  0.00    +0.000 HD
ENDROOT
BRANCH   3   8
ATOM      8  C   UNL     1       0.445   2.577   0.007  0.00  0.00    +0.000 A 
ATOM      9  C   UNL     1       1.245   3.071  -1.026  0.00  0.00    +0.000 A 
ATOM     10  C   UNL     1       1.655   4.390  -0.996  0.00  0.00    +0.000 A 
ATOM     11  N   UNL     1       1.331   5.224   0.004  0.00  0.00    +0.000 NA
ATOM     12  C   UNL     1       0.583   4.740   1.000  0.00  0.00    +0.000 A 
ATOM     13  C   UNL     1       0.112   3.447   1.037  0.00  0.00    +0.000 A 
ENDBRANCH   3   8
BRANCH   6  14
ATOM     14  C   UNL     1       0.351  -2.568   0.031  0.00  0.00    +0.000 C 
ATOM     15  N   UNL     1      -0.671  -3.625   0.036  0.00  0.00    +0.000 N 
ATOM     16  O   UNL     1       1.584  -2.877   0.044  0.00  0.00    +0.000 OA
ATOM     17  H   UNL     1      -0.392  -4.605   0.050  0.00  0.00    +0.000 HD
ATOM     18  H   UNL     1      -1.661  -3.377   0.025  0.00  0.00    +0.000 HD
ENDBRANCH   6  14
TORSDOF 2
