
 OpenBabel03132514253D

 57 59  0  0  0  0  0  0  0  0999 V2000
    1.0522    0.0177   -0.0835 C   0  0  0  0  0  0  0  0  0  0  0  0
    0.5788    1.3032    0.2904 O   0  0  0  0  0  0  0  0  0  0  0  0
    1.0522    1.6221    1.5907 C   0  0  0  0  0  0  0  0  0  0  0  0
    0.5455    0.5875    2.5822 C   0  0  0  0  0  0  0  0  0  0  0  0
    1.0522   -0.7885    2.1820 C   0  0  0  0  0  0  0  0  0  0  0  0
    2.5722   -0.7885    2.1820 C   0  0  0  0  0  0  0  0  0  0  0  0
    3.3072   -1.7076    3.0629 N   0  0  0  0  0  0  0  0  0  0  0  0
    3.2076    0.0061    1.4205 O   0  0  0  0  0  0  0  0  0  0  0  0
    0.5622   -1.7891    3.1410 N   0  0  0  0  0  0  0  0  0  0  0  0
    1.0522   -3.1199    2.7540 C   0  0  0  0  0  0  0  0  0  0  0  0
    1.0522   -1.4589    4.4870 C   0  0  0  0  0  0  0  0  0  0  0  0
    2.5722   -1.4589    4.4870 C   0  0  0  0  0  0  0  0  0  0  0  0
    3.2506   -2.6442    4.4858 C   0  0  0  0  0  0  0  0  0  0  0  0
    4.6640   -2.6458    4.5004 C   0  0  0  0  0  0  0  0  0  0  0  0
    5.4594   -3.8269    4.5012 C   0  0  0  0  0  0  0  0  0  0  0  0
    4.7934   -5.1364    4.4513 N   0  0  0  0  0  0  0  0  0  0  0  0
    5.5945   -6.3690    4.4512 C   0  0  0  0  0  0  0  0  0  0  0  0
    5.5134   -7.2585    3.3997 C   0  0  0  0  0  0  0  0  0  0  0  0
    6.2674   -8.4249    3.3859 C   0  0  0  0  0  0  0  0  0  0  0  0
    7.1182   -8.6924    4.4571 C   0  0  0  0  0  0  0  0  0  0  0  0
    7.1990   -7.7997    5.5093 C   0  0  0  0  0  0  0  0  0  0  0  0
    8.2831   -8.1011    6.8238 Cl  0  0  0  0  0  0  0  0  0  0  0  0
    6.4357   -6.6543    5.4958 C   0  0  0  0  0  0  0  0  0  0  0  0
    6.5383   -5.7794    6.5170 F   0  0  0  0  0  0  0  0  0  0  0  0
    6.7690   -3.7797    4.5451 N   0  0  0  0  0  0  0  0  0  0  0  0
    7.3511   -2.5413    4.5664 C   0  0  0  0  0  0  0  0  0  0  0  0
    6.7409   -1.3884    4.5457 N   0  0  0  0  0  0  0  0  0  0  0  0
    5.3700   -1.4219    4.5148 C   0  0  0  0  0  0  0  0  0  0  0  0
    4.6386   -0.2134    4.4881 C   0  0  0  0  0  0  0  0  0  0  0  0
    3.2716   -0.2368    4.4882 C   0  0  0  0  0  0  0  0  0  0  0  0
    2.5488    0.9854    4.4897 O   0  0  0  0  0  0  0  0  0  0  0  0
    1.1289    0.9706    4.4898 C   0  0  0  0  0  0  0  0  0  0  0  0
    0.6955   -0.2227   -1.0632 H   0  0  0  0  0  0  0  0  0  0  0  0
    0.6955   -0.7107    0.6146 H   0  0  0  0  0  0  0  0  0  0  0  0
    2.1222    0.0177   -0.0835 H   0  0  0  0  0  0  0  0  0  0  0  0
    2.1222    1.6222    1.5907 H   0  0  0  0  0  0  0  0  0  0  0  0
    0.6955    2.5908    1.8724 H   0  0  0  0  0  0  0  0  0  0  0  0
    0.9022    0.8279    3.5620 H   0  0  0  0  0  0  0  0  0  0  0  0
   -0.5245    0.5875    2.5822 H   0  0  0  0  0  0  0  0  0  0  0  0
    0.6955   -1.0289    1.2023 H   0  0  0  0  0  0  0  0  0  0  0  0
    4.3272   -1.7076    3.0629 H   0  0  0  0  0  0  0  0  0  0  0  0
    2.7972   -2.3454    3.6741 H   0  0  0  0  0  0  0  0  0  0  0  0
    2.1222   -3.1199    2.7539 H   0  0  0  0  0  0  0  0  0  0  0  0
    0.6955   -3.8482    3.4520 H   0  0  0  0  0  0  0  0  0  0  0  0
    0.6955   -3.3602    1.7742 H   0  0  0  0  0  0  0  0  0  0  0  0
    0.6955   -0.4903    4.7688 H   0  0  0  0  0  0  0  0  0  0  0  0
    0.6955   -2.1872    5.1850 H   0  0  0  0  0  0  0  0  0  0  0  0
    2.7134   -3.5695    4.4738 H   0  0  0  0  0  0  0  0  0  0  0  0
    3.7754   -5.1899    4.4168 H   0  0  0  0  0  0  0  0  0  0  0  0
    4.8583   -7.0463    2.5807 H   0  0  0  0  0  0  0  0  0  0  0  0
    6.1963   -9.1078    2.5653 H   0  0  0  0  0  0  0  0  0  0  0  0
    7.7068   -9.5859    4.4649 H   0  0  0  0  0  0  0  0  0  0  0  0
    8.4202   -2.5159    4.6040 H   0  0  0  0  0  0  0  0  0  0  0  0
    5.1560    0.7230    4.4677 H   0  0  0  0  0  0  0  0  0  0  0  0
    0.7774    0.4634    3.6157 H   0  0  0  0  0  0  0  0  0  0  0  0
    0.7777    0.4615    5.3630 H   0  0  0  0  0  0  0  0  0  0  0  0
    0.7617    1.9756    4.4910 H   0  0  0  0  0  0  0  0  0  0  0  0
  1  2  1  0  0  0  0
  1 33  1  0  0  0  0
  1 34  1  0  0  0  0
  1 35  1  0  0  0  0
  2  3  1  0  0  0  0
  3  4  1  0  0  0  0
  3 36  1  0  0  0  0
  3 37  1  0  0  0  0
  4  5  1  0  0  0  0
  4 38  1  0  0  0  0
  4 39  1  0  0  0  0
  5  6  1  0  0  0  0
  5  9  1  0  0  0  0
  5 40  1  0  0  0  0
  6  7  1  0  0  0  0
  6  8  2  0  0  0  0
  7 41  1  0  0  0  0
  7 42  1  0  0  0  0
  9 10  1  0  0  0  0
  9 11  1  0  0  0  0
 10 43  1  0  0  0  0
 10 44  1  0  0  0  0
 10 45  1  0  0  0  0
 11 12  1  0  0  0  0
 11 46  1  0  0  0  0
 11 47  1  0  0  0  0
 12 13  1  0  0  0  0
 12 30  2  0  0  0  0
 13 14  2  0  0  0  0
 13 48  1  0  0  0  0
 14 15  1  0  0  0  0
 14 28  1  0  0  0  0
 15 16  1  0  0  0  0
 15 25  2  0  0  0  0
 16 17  1  0  0  0  0
 16 49  1  0  0  0  0
 17 18  1  0  0  0  0
 17 23  2  0  0  0  0
 18 19  2  0  0  0  0
 18 50  1  0  0  0  0
 19 20  1  0  0  0  0
 19 51  1  0  0  0  0
 20 21  2  0  0  0  0
 20 52  1  0  0  0  0
 21 22  1  0  0  0  0
 21 23  1  0  0  0  0
 23 24  1  0  0  0  0
 25 26  1  0  0  0  0
 26 27  2  0  0  0  0
 26 53  1  0  0  0  0
 27 28  1  0  0  0  0
 28 29  2  0  0  0  0
 29 30  1  0  0  0  0
 29 54  1  0  0  0  0
 30 31  1  0  0  0  0
 31 32  1  0  0  0  0
 32 55  1  0  0  0  0
 32 56  1  0  0  0  0
 32 57  1  0  0  0  0
M  END
