
 OpenBabel03132514253D

 64 69  0  0  0  0  0  0  0  0999 V2000
    0.9586   -0.0110   -0.0904 C   0  0  0  0  0  0  0  0  0  0  0  0
    0.4686    1.1914   -0.7797 N   0  0  0  0  0  0  0  0  0  0  0  0
   -1.0014    1.1914   -0.7797 C   0  0  0  0  0  0  0  0  0  0  0  0
    1.0553    2.6259    0.0544 S   0  0  0  0  0  0  0  0  0  0  0  0
    0.5302    2.6214    1.5395 N   0  0  0  0  0  0  0  0  0  0  0  0
    2.5857    2.6259    0.0544 O   0  0  0  0  0  0  0  0  0  0  0  0
    0.4519    4.1063   -0.7944 C   0  0  0  0  0  0  0  0  0  0  0  0
    1.1945    5.2497   -0.5494 C   0  0  0  0  0  0  0  0  0  0  0  0
    0.6093    6.4332   -1.0583 C   0  0  0  0  0  0  0  0  0  0  0  0
   -0.3367    6.4649   -1.9792 C   0  0  0  0  0  0  0  0  0  0  0  0
   -0.6839    7.7419   -2.7270 C   0  0  0  0  0  0  0  0  0  0  0  0
    0.3291    8.2305   -3.5354 C   0  0  0  0  0  0  0  0  0  0  0  0
    0.0638    9.5107   -4.0764 C   0  0  0  0  0  0  0  0  0  0  0  0
   -1.1340   10.0632   -4.1405 C   0  0  0  0  0  0  0  0  0  0  0  0
   -1.4138   11.2687   -5.0230 C   0  0  0  0  0  0  0  0  0  0  0  0
   -1.0903   11.2697   -6.3653 N   0  0  0  0  0  0  0  0  0  0  0  0
   -1.2101   12.4505   -7.1043 C   0  0  0  0  0  0  0  0  0  0  0  0
   -0.9603   12.7997   -8.5018 N   0  0  0  0  0  0  0  0  0  0  0  0
   -1.2425   14.0603   -8.6555 C   0  0  0  0  0  0  0  0  0  0  0  0
   -1.1282   14.7756   -9.8768 O   0  0  0  0  0  0  0  0  0  0  0  0
   -0.6767   14.1124  -11.0484 C   0  0  0  0  0  0  0  0  0  0  0  0
   -1.5065   13.1002  -11.3485 C   0  0  0  0  0  0  0  0  0  0  0  0
   -1.1067   11.9069  -10.6188 O   0  0  0  0  0  0  0  0  0  0  0  0
    0.3853   12.0826  -10.2770 C   0  0  0  0  0  0  0  0  0  0  0  0
    1.2120   11.1913  -11.1803 C   0  0  0  0  0  0  0  0  0  0  0  0
    0.5592    9.9501  -11.4031 O   0  0  0  0  0  0  0  0  0  0  0  0
    1.3880   11.8648  -12.3504 C   0  0  0  0  0  0  0  0  0  0  0  0
    1.4302   13.2970  -12.0971 O   0  0  0  0  0  0  0  0  0  0  0  0
    0.6917   13.5266  -10.7648 C   0  0  0  0  0  0  0  0  0  0  0  0
   -1.6746   14.6091   -7.4443 N   0  0  0  0  0  0  0  0  0  0  0  0
   -1.6593   13.6256   -6.4764 C   0  0  0  0  0  0  0  0  0  0  0  0
   -1.9815   13.6054   -5.1242 C   0  0  0  0  0  0  0  0  0  0  0  0
   -1.8647   12.4362   -4.4066 C   0  0  0  0  0  0  0  0  0  0  0  0
   -2.2923   12.4141   -2.6789 Cl  0  0  0  0  0  0  0  0  0  0  0  0
   -2.1089    9.4924   -3.3703 C   0  0  0  0  0  0  0  0  0  0  0  0
   -1.8837    8.3106   -2.7066 C   0  0  0  0  0  0  0  0  0  0  0  0
   -0.9871    5.2874   -2.2238 C   0  0  0  0  0  0  0  0  0  0  0  0
   -0.5547    4.1111   -1.6603 C   0  0  0  0  0  0  0  0  0  0  0  0
    0.6019   -0.8831   -0.5974 H   0  0  0  0  0  0  0  0  0  0  0  0
    0.6019   -0.0140    0.9184 H   0  0  0  0  0  0  0  0  0  0  0  0
    2.0286   -0.0110   -0.0904 H   0  0  0  0  0  0  0  0  0  0  0  0
   -1.3581    1.1883    0.2291 H   0  0  0  0  0  0  0  0  0  0  0  0
   -1.3581    2.0666   -1.2814 H   0  0  0  0  0  0  0  0  0  0  0  0
   -1.3581    0.3193   -1.2867 H   0  0  0  0  0  0  0  0  0  0  0  0
   -0.4726    2.6208    1.7259 H   0  0  0  0  0  0  0  0  0  0  0  0
    2.1260    5.2389   -0.0231 H   0  0  0  0  0  0  0  0  0  0  0  0
    0.9576    7.3675   -0.6700 H   0  0  0  0  0  0  0  0  0  0  0  0
    1.2306    7.6890   -3.7328 H   0  0  0  0  0  0  0  0  0  0  0  0
    0.8912   10.0702   -4.4603 H   0  0  0  0  0  0  0  0  0  0  0  0
   -0.6429   14.8068  -11.8618 H   0  0  0  0  0  0  0  0  0  0  0  0
   -2.5054   13.3667  -11.0727 H   0  0  0  0  0  0  0  0  0  0  0  0
   -1.4643   12.9053  -12.3998 H   0  0  0  0  0  0  0  0  0  0  0  0
    0.5904   11.8767   -9.2472 H   0  0  0  0  0  0  0  0  0  0  0  0
    2.1597   10.9869  -10.7277 H   0  0  0  0  0  0  0  0  0  0  0  0
   -0.3318   10.1133  -11.8268 H   0  0  0  0  0  0  0  0  0  0  0  0
    0.5720   11.6477  -13.0075 H   0  0  0  0  0  0  0  0  0  0  0  0
    2.3082   11.5573  -12.8016 H   0  0  0  0  0  0  0  0  0  0  0  0
    1.2515   14.1499  -10.0992 H   0  0  0  0  0  0  0  0  0  0  0  0
   -1.9556   15.5789   -7.2996 H   0  0  0  0  0  0  0  0  0  0  0  0
   -2.3201   14.4982   -4.6413 H   0  0  0  0  0  0  0  0  0  0  0  0
   -3.0610    9.9729   -3.2832 H   0  0  0  0  0  0  0  0  0  0  0  0
   -2.6823    7.8443   -2.1683 H   0  0  0  0  0  0  0  0  0  0  0  0
   -1.8450    5.2817   -2.8631 H   0  0  0  0  0  0  0  0  0  0  0  0
   -1.0335    3.1906   -1.9218 H   0  0  0  0  0  0  0  0  0  0  0  0
  1  2  1  0  0  0  0
  1 39  1  0  0  0  0
  1 40  1  0  0  0  0
  1 41  1  0  0  0  0
  2  3  1  0  0  0  0
  2  4  1  0  0  0  0
  3 42  1  0  0  0  0
  3 43  1  0  0  0  0
  3 44  1  0  0  0  0
  4  5  2  0  0  0  0
  4  6  2  0  0  0  0
  4  7  1  0  0  0  0
  5 45  1  0  0  0  0
  7  8  1  0  0  0  0
  7 38  2  0  0  0  0
  8  9  2  0  0  0  0
  8 46  1  0  0  0  0
  9 10  1  0  0  0  0
  9 47  1  0  0  0  0
 10 11  1  0  0  0  0
 10 37  2  0  0  0  0
 11 12  1  0  0  0  0
 11 36  2  0  0  0  0
 12 13  2  0  0  0  0
 12 48  1  0  0  0  0
 13 14  1  0  0  0  0
 13 49  1  0  0  0  0
 14 15  1  0  0  0  0
 14 35  2  0  0  0  0
 15 16  1  0  0  0  0
 15 33  2  0  0  0  0
 16 17  2  0  0  0  0
 17 18  1  0  0  0  0
 17 31  1  0  0  0  0
 18 19  2  0  0  0  0
 19 20  1  0  0  0  0
 19 30  1  0  0  0  0
 20 21  1  0  0  0  0
 21 22  1  0  0  0  0
 21 29  1  0  0  0  0
 21 50  1  0  0  0  0
 22 23  1  0  0  0  0
 22 51  1  0  0  0  0
 22 52  1  0  0  0  0
 23 24  1  0  0  0  0
 24 25  1  0  0  0  0
 24 29  1  0  0  0  0
 24 53  1  0  0  0  0
 25 26  1  0  0  0  0
 25 27  1  0  0  0  0
 25 54  1  0  0  0  0
 26 55  1  0  0  0  0
 27 28  1  0  0  0  0
 27 56  1  0  0  0  0
 27 57  1  0  0  0  0
 28 29  1  0  0  0  0
 29 58  1  0  0  0  0
 30 31  1  0  0  0  0
 30 59  1  0  0  0  0
 31 32  2  0  0  0  0
 32 33  1  0  0  0  0
 32 60  1  0  0  0  0
 33 34  1  0  0  0  0
 35 36  1  0  0  0  0
 35 61  1  0  0  0  0
 36 62  1  0  0  0  0
 37 38  1  0  0  0  0
 37 63  1  0  0  0  0
 38 64  1  0  0  0  0
M  END
