REMARK  Name = 
REMARK  7 active torsions:
REMARK  status: ('A' for Active; 'I' for Inactive)
REMARK    1  A    between atoms: C_1  and  O_2
REMARK    2  A    between atoms: O_2  and  C_3
REMARK    3  A    between atoms: C_5  and  C_6
REMARK    4  A    between atoms: C_9  and  C_10
REMARK    5  A    between atoms: C_10  and  O_12
REMARK    6  A    between atoms: C_21  and  N_22
REMARK    7  A    between atoms: C_25  and  O_26
REMARK                            x       y       z     vdW  Elec       q    Type
REMARK                         _______ _______ _______ _____ _____    ______ ____
ROOT
ATOM      1  C   UNL     1       0.916   2.422   0.630  0.00  0.00    +0.000 A 
ATOM      2  N   UNL     1      -0.107   3.128   1.124  0.00  0.00    +0.000 NA
ATOM      3  C   UNL     1       0.151   3.983   2.125  0.00  0.00    +0.000 A 
ATOM      4  C   UNL     1       1.417   4.153   2.651  0.00  0.00    +0.000 A 
ATOM      5  C   UNL     1       2.486   3.429   2.115  0.00  0.00    +0.000 A 
ATOM      6  C   UNL     1       2.211   2.548   1.077  0.00  0.00    +0.000 A 
ENDROOT
BRANCH   3   7
ATOM      7  C   UNL     1      -0.995   4.797   2.704  0.00  0.00    +0.000 A 
ATOM      8  C   UNL     1      -2.083   4.192   3.312  0.00  0.00    +0.000 A 
ATOM      9  C   UNL     1      -3.096   4.999   3.860  0.00  0.00    +0.000 A 
ATOM     10  C   UNL     1      -4.371   4.737   4.477  0.00  0.00    +0.000 A 
ATOM     11  C   UNL     1      -4.954   5.963   4.693  0.00  0.00    +0.000 A 
ATOM     12  N   UNL     1      -4.116   6.970   4.292  0.00  0.00    +0.000 N 
ATOM     13  C   UNL     1      -2.979   6.409   3.757  0.00  0.00    +0.000 A 
ATOM     14  C   UNL     1      -1.884   7.037   3.154  0.00  0.00    +0.000 A 
ATOM     15  C   UNL     1      -0.913   6.200   2.641  0.00  0.00    +0.000 A 
ATOM     16 CL   UNL     1       0.471   6.905   1.845  0.00  0.00    +0.000 Cl
ATOM     17  H   UNL     1      -4.303   7.969   4.376  0.00  0.00    +0.000 HD
BRANCH  10  18
ATOM     18  C   UNL     1      -4.954   3.376   4.822  0.00  0.00    +0.000 C 
ATOM     19  O   UNL     1      -6.099   3.295   5.369  0.00  0.00    +0.000 OA
BRANCH  18  20
ATOM     20  O   UNL     1      -4.221   2.195   4.533  0.00  0.00    +0.000 OA
ATOM     21  H   UNL     1      -4.605   1.300   4.760  0.00  0.00    +0.000 HD
ENDBRANCH  18  20
ENDBRANCH  10  18
ENDBRANCH   3   7
BRANCH   6  22
ATOM     22  N   UNL     1       3.290   1.760   0.464  0.00  0.00    +0.000 N 
ATOM     23  C   UNL     1       3.748   1.755  -1.015  0.00  0.00    +0.000 C 
ATOM     24  C   UNL     1       4.070   0.258  -1.266  0.00  0.00    +0.000 C 
ATOM     25  C   UNL     1       4.714  -0.217   0.053  0.00  0.00    +0.000 C 
ATOM     26  C   UNL     1       4.218   0.738   1.153  0.00  0.00    +0.000 C 
BRANCH  25  27
ATOM     27  O   UNL     1       6.131  -0.205  -0.035  0.00  0.00    +0.000 OA
ATOM     28  H   UNL     1       6.444   0.722  -0.239  0.00  0.00    +0.000 HD
ENDBRANCH  25  27
ENDBRANCH   6  22
BRANCH   1  30
ATOM     29  C   UNL     1       1.046   0.065  -0.060  0.00  0.00    +0.000 C 
ATOM     30  O   UNL     1       0.573   1.386  -0.278  0.00  0.00    +0.000 OA
ENDBRANCH   1  30
TORSDOF 6
