
 OpenBabel03132514253D

 51 55  0  0  0  0  0  0  0  0999 V2000
    0.6770    1.2160    0.0070 C   0  0  0  0  0  0  0  0  0  0  0  0
    1.4420    0.0470   -0.0030 C   0  0  0  0  0  0  0  0  0  0  0  0
    0.7650   -1.1660   -0.0050 C   0  0  0  0  0  0  0  0  0  0  0  0
   -0.6110   -1.1650    0.0090 C   0  0  0  0  0  0  0  0  0  0  0  0
   -1.3312   -2.5032    0.0397 C   0  0  0  0  0  0  0  0  0  0  0  0
   -2.2059   -2.9751   -0.8901 N   0  0  0  0  0  0  0  0  0  0  0  0
   -2.6756   -4.2141   -0.5556 N   0  0  0  0  0  0  0  0  0  0  0  0
   -2.0752   -4.5045    0.5866 C   0  0  0  0  0  0  0  0  0  0  0  0
   -1.2263   -3.4508    0.9920 C   0  0  0  0  0  0  0  0  0  0  0  0
   -0.3696   -3.3968    2.2464 C   0  0  0  0  0  0  0  0  0  0  0  0
   -0.5509   -2.3956    3.2038 C   0  0  0  0  0  0  0  0  0  0  0  0
    0.2363   -2.3903    4.3385 C   0  0  0  0  0  0  0  0  0  0  0  0
    1.1949   -3.3041    4.5567 N   0  0  0  0  0  0  0  0  0  0  0  0
    1.3781   -4.2470    3.6272 C   0  0  0  0  0  0  0  0  0  0  0  0
    2.4799   -5.2706    3.8481 C   0  0  0  0  0  0  0  0  0  0  0  0
    2.4330   -6.0811    4.9703 C   0  0  0  0  0  0  0  0  0  0  0  0
    3.6387   -6.7758    5.2266 C   0  0  0  0  0  0  0  0  0  0  0  0
    4.6010   -6.9579    4.3406 C   0  0  0  0  0  0  0  0  0  0  0  0
    5.6297   -7.9162    4.5398 O   0  0  0  0  0  0  0  0  0  0  0  0
    6.6461   -8.0805    3.5618 C   0  0  0  0  0  0  0  0  0  0  0  0
    6.0160   -8.4876    2.2398 C   0  0  0  0  0  0  0  0  0  0  0  0
    5.0786   -7.4434    1.8017 N   0  0  0  0  0  0  0  0  0  0  0  0
    3.8534   -7.5948    1.2426 C   0  0  0  0  0  0  0  0  0  0  0  0
    3.3991   -6.3421    0.9960 C   0  0  0  0  0  0  0  0  0  0  0  0
    4.3229   -5.5083    1.3890 N   0  0  0  0  0  0  0  0  0  0  0  0
    5.3228   -6.1629    1.8640 C   0  0  0  0  0  0  0  0  0  0  0  0
    4.5533   -6.1742    3.2213 C   0  0  0  0  0  0  0  0  0  0  0  0
    3.4681   -5.3708    2.9668 C   0  0  0  0  0  0  0  0  0  0  0  0
    0.6225   -4.3405    2.4810 C   0  0  0  0  0  0  0  0  0  0  0  0
   -1.3480   -0.0500   -0.0030 N   0  0  0  0  0  0  0  0  0  0  0  0
   -0.7010    1.1260   -0.0040 C   0  0  0  0  0  0  0  0  0  0  0  0
    1.1549    2.1732    0.0231 H   0  0  0  0  0  0  0  0  0  0  0  0
    2.5113    0.0847   -0.0089 H   0  0  0  0  0  0  0  0  0  0  0  0
    1.3063   -2.0889   -0.0173 H   0  0  0  0  0  0  0  0  0  0  0  0
   -2.4771   -2.4672   -1.7320 H   0  0  0  0  0  0  0  0  0  0  0  0
   -2.2140   -5.4154    1.1305 H   0  0  0  0  0  0  0  0  0  0  0  0
   -1.2935   -1.6390    3.0590 H   0  0  0  0  0  0  0  0  0  0  0  0
    0.0757   -1.6282    5.0722 H   0  0  0  0  0  0  0  0  0  0  0  0
    1.5637   -6.1736    5.5874 H   0  0  0  0  0  0  0  0  0  0  0  0
    3.7807   -7.1817    6.2063 H   0  0  0  0  0  0  0  0  0  0  0  0
    7.1731   -7.1577    3.4366 H   0  0  0  0  0  0  0  0  0  0  0  0
    7.3284   -8.8405    3.8807 H   0  0  0  0  0  0  0  0  0  0  0  0
    6.7819   -8.6113    1.5028 H   0  0  0  0  0  0  0  0  0  0  0  0
    5.4890   -9.4103    2.3650 H   0  0  0  0  0  0  0  0  0  0  0  0
    3.3480   -8.5154    1.0376 H   0  0  0  0  0  0  0  0  0  0  0  0
    2.4567   -6.0842    0.5597 H   0  0  0  0  0  0  0  0  0  0  0  0
    6.2186   -5.7244    2.2513 H   0  0  0  0  0  0  0  0  0  0  0  0
    5.3729   -6.1867    2.5335 H   0  0  0  0  0  0  0  0  0  0  0  0
    3.4189   -4.8209    2.0503 H   0  0  0  0  0  0  0  0  0  0  0  0
    0.7967   -5.1296    1.7797 H   0  0  0  0  0  0  0  0  0  0  0  0
   -1.2752    2.0288   -0.0137 H   0  0  0  0  0  0  0  0  0  0  0  0
  1  2  1  0  0  0  0
  1 31  2  0  0  0  0
  1 32  1  0  0  0  0
  2  3  2  0  0  0  0
  2 33  1  0  0  0  0
  3  4  1  0  0  0  0
  3 34  1  0  0  0  0
  4  5  1  0  0  0  0
  4 30  2  0  0  0  0
  5  6  1  0  0  0  0
  5  9  2  0  0  0  0
  6  7  1  0  0  0  0
  6 35  1  0  0  0  0
  7  8  2  0  0  0  0
  8  9  1  0  0  0  0
  8 36  1  0  0  0  0
  9 10  1  0  0  0  0
 10 11  1  0  0  0  0
 10 29  2  0  0  0  0
 11 12  2  0  0  0  0
 11 37  1  0  0  0  0
 12 13  1  0  0  0  0
 12 38  1  0  0  0  0
 13 14  2  0  0  0  0
 14 15  1  0  0  0  0
 14 29  1  0  0  0  0
 15 16  1  0  0  0  0
 15 28  2  0  0  0  0
 16 17  2  0  0  0  0
 16 39  1  0  0  0  0
 17 18  1  0  0  0  0
 17 40  1  0  0  0  0
 18 19  1  0  0  0  0
 18 27  2  0  0  0  0
 19 20  1  0  0  0  0
 20 21  1  0  0  0  0
 20 41  1  0  0  0  0
 20 42  1  0  0  0  0
 21 22  1  0  0  0  0
 21 43  1  0  0  0  0
 21 44  1  0  0  0  0
 22 23  1  0  0  0  0
 22 26  1  0  0  0  0
 23 24  2  0  0  0  0
 23 45  1  0  0  0  0
 24 25  1  0  0  0  0
 24 46  1  0  0  0  0
 25 26  2  0  0  0  0
 26 47  1  0  0  0  0
 27 28  1  0  0  0  0
 27 48  1  0  0  0  0
 28 49  1  0  0  0  0
 29 50  1  0  0  0  0
 30 31  1  0  0  0  0
 31 51  1  0  0  0  0
M  END
