REMARK  Name = 
REMARK  8 active torsions:
REMARK  status: ('A' for Active; 'I' for Inactive)
REMARK    1  A    between atoms: C_1  and  C_2
REMARK    2  A    between atoms: C_2  and  C_3
REMARK    3  A    between atoms: N_9  and  C_10
REMARK    4  A    between atoms: C_13  and  C_14
REMARK    5  A    between atoms: C_21  and  N_22
REMARK    6  A    between atoms: N_25  and  C_26
REMARK    7  A    between atoms: C_26  and  C_27
REMARK    8  A    between atoms: C_31  and  C_32
REMARK                            x       y       z     vdW  Elec       q    Type
REMARK                         _______ _______ _______ _____ _____    ______ ____
ROOT
ATOM      1  C   UNL     1      -0.754   3.371   0.025  0.00  0.00    +0.000 A 
ATOM      2  C   UNL     1      -2.100   3.241  -0.194  0.00  0.00    +0.000 A 
ATOM      3  N   UNL     1      -2.416   2.837  -1.481  0.00  0.00    +0.000 NA
ATOM      4  C   UNL     1      -1.358   2.638  -2.213  0.00  0.00    +0.000 A 
ATOM      5  N   UNL     1      -1.433   2.182  -3.608  0.00  0.00    +0.000 N 
ATOM      6  C   UNL     1      -0.200   1.976  -4.381  0.00  0.00    +0.000 A 
ATOM      7  C   UNL     1       0.745   1.059  -3.951  0.00  0.00    +0.000 A 
ATOM      8  C   UNL     1       1.889   0.862  -4.708  0.00  0.00    +0.000 A 
ATOM      9  N   UNL     1       2.112   1.582  -5.826  0.00  0.00    +0.000 NA
ATOM     10  C   UNL     1       1.153   2.449  -6.159  0.00  0.00    +0.000 A 
ATOM     11  C   UNL     1       1.383   3.266  -7.393  0.00  0.00    +0.000 C 
ATOM     12  N   UNL     1       0.014   2.670  -5.511  0.00  0.00    +0.000 NA
ATOM     13  S   UNL     1       0.142   2.954  -1.412  0.00  0.00    +0.000 S 
ATOM     14  H   UNL     1      -2.341   2.007  -4.040  0.00  0.00    +0.000 HD
ENDROOT
BRANCH   1  18
ATOM     15  C   UNL     1       1.154   4.294   3.734  0.00  0.00    +0.000 A 
ATOM     16  C   UNL     1       1.439   5.076   2.627  0.00  0.00    +0.000 A 
ATOM     17  C   UNL     1       0.597   4.827   1.517  0.00  0.00    +0.000 A 
ATOM     18  C   UNL     1      -0.143   3.744   1.367  0.00  0.00    +0.000 A 
ATOM     19  C   UNL     1      -0.331   2.977   2.482  0.00  0.00    +0.000 A 
ATOM     20  C   UNL     1       0.357   3.236   3.643  0.00  0.00    +0.000 A 
BRANCH  15  27
ATOM     21  C   UNL     1       1.051   0.716   2.290  0.00  0.00    +0.000 A 
ATOM     22  C   UNL     1       1.698   0.547   3.473  0.00  0.00    +0.000 A 
ATOM     23  C   UNL     1       1.755   1.837   4.024  0.00  0.00    +0.000 A 
ATOM     24  N   UNL     1       2.383   2.143   5.318  0.00  0.00    +0.000 N 
ATOM     25  C   UNL     1       2.396   3.525   5.819  0.00  0.00    +0.000 C 
ATOM     26  O   UNL     1       2.939   3.790   6.938  0.00  0.00    +0.000 OA
ATOM     27  N   UNL     1       1.782   4.601   5.027  0.00  0.00    +0.000 N 
ATOM     28  N   UNL     1       1.185   2.741   3.257  0.00  0.00    +0.000 NA
ATOM     29  O   UNL     1       0.720   2.024   2.138  0.00  0.00    +0.000 OA
ATOM     30  H   UNL     1       2.809   1.397   5.867  0.00  0.00    +0.000 HD
ATOM     31  H   UNL     1       1.791   5.559   5.375  0.00  0.00    +0.000 HD
BRANCH  21  33
ATOM     32  C   UNL     1       1.051  -0.045  -0.073  0.00  0.00    +0.000 C 
ATOM     33  C   UNL     1       0.545  -0.346   1.328  0.00  0.00    +0.000 C 
ENDBRANCH  21  33
ENDBRANCH  15  27
ENDBRANCH   1  18
BRANCH   8  34
ATOM     34  N   UNL     1       2.873  -0.146  -4.287  0.00  0.00    +0.000 N 
ATOM     35  C   UNL     1       2.522  -1.544  -4.006  0.00  0.00    +0.000 C 
ATOM     36  C   UNL     1       3.399  -2.504  -4.785  0.00  0.00    +0.000 C 
ATOM     37  N   UNL     1       4.810  -2.295  -4.442  0.00  0.00    +0.000 NA
ATOM     38  C   UNL     1       5.162  -0.897  -4.724  0.00  0.00    +0.000 C 
ATOM     39  C   UNL     1       4.285   0.063  -3.945  0.00  0.00    +0.000 C 
BRANCH  37  40
ATOM     40  C   UNL     1       5.020  -2.579  -3.016  0.00  0.00    +0.000 C 
ATOM     41  C   UNL     1       4.155  -1.649  -2.181  0.00  0.00    +0.000 C 
ENDBRANCH  37  40
ENDBRANCH   8  34
TORSDOF 5
