
 OpenBabel03132514253D

 52 56  0  0  0  0  0  0  0  0999 V2000
   -0.0000    2.0710    0.0190 C   0  0  0  0  0  0  0  0  0  0  0  0
    0.0020    0.6200    0.0320 N   0  0  0  0  0  0  0  0  0  0  0  0
    1.1320   -0.1680    0.0040 C   0  0  0  0  0  0  0  0  0  0  0  0
    2.2550    0.2760   -0.0360 O   0  0  0  0  0  0  0  0  0  0  0  0
    0.6750   -1.6060    0.0260 C   0  0  0  0  0  0  0  0  0  0  0  0
    1.5655   -2.8369    0.0729 C   0  0  0  0  0  0  0  0  0  0  0  0
    2.4493   -3.1453    1.0354 C   0  0  0  0  0  0  0  0  0  0  0  0
    3.0721   -4.3953    0.7543 N   0  0  0  0  0  0  0  0  0  0  0  0
    2.5546   -4.8360   -0.4801 C   0  0  0  0  0  0  0  0  0  0  0  0
    2.8860   -5.9265   -1.2724 C   0  0  0  0  0  0  0  0  0  0  0  0
    2.2454   -6.0312   -2.5026 C   0  0  0  0  0  0  0  0  0  0  0  0
    1.3061   -5.1042   -2.9136 C   0  0  0  0  0  0  0  0  0  0  0  0
    0.9826   -4.0449   -2.1330 C   0  0  0  0  0  0  0  0  0  0  0  0
    1.6177   -3.8877   -0.9047 C   0  0  0  0  0  0  0  0  0  0  0  0
   -0.6810   -1.5920   -0.0040 C   0  0  0  0  0  0  0  0  0  0  0  0
   -1.5883   -2.8110   -0.0394 C   0  0  0  0  0  0  0  0  0  0  0  0
   -3.0184   -2.6436   -0.0692 C   0  0  0  0  0  0  0  0  0  0  0  0
   -3.5701   -1.3647   -0.0655 N   0  0  0  0  0  0  0  0  0  0  0  0
   -5.0298   -1.1938   -0.0958 C   0  0  0  0  0  0  0  0  0  0  0  0
   -5.4775   -0.4388    1.1451 C   0  0  0  0  0  0  0  0  0  0  0  0
   -4.8082    0.9256    1.1771 C   0  0  0  0  0  0  0  0  0  0  0  0
   -5.1877    1.6857   -0.0225 N   0  0  0  0  0  0  0  0  0  0  0  0
   -2.7387   -0.2477   -0.0330 C   0  0  0  0  0  0  0  0  0  0  0  0
   -3.3092    1.0747   -0.0292 C   0  0  0  0  0  0  0  0  0  0  0  0
   -4.7393    1.2421   -0.0589 C   0  0  0  0  0  0  0  0  0  0  0  0
   -5.3097    2.5645   -0.0551 C   0  0  0  0  0  0  0  0  0  0  0  0
   -6.7399    2.7320   -0.0848 C   0  0  0  0  0  0  0  0  0  0  0  0
   -1.3086   -0.4151   -0.0033 C   0  0  0  0  0  0  0  0  0  0  0  0
   -1.1260   -0.1590    0.0040 C   0  0  0  0  0  0  0  0  0  0  0  0
   -2.2560    0.2720   -0.0290 O   0  0  0  0  0  0  0  0  0  0  0  0
    0.5308    2.4361    0.8733 H   0  0  0  0  0  0  0  0  0  0  0  0
    0.4765    2.4203   -0.8731 H   0  0  0  0  0  0  0  0  0  0  0  0
   -1.0088    2.4265    0.0471 H   0  0  0  0  0  0  0  0  0  0  0  0
    2.6565   -2.5385    1.8919 H   0  0  0  0  0  0  0  0  0  0  0  0
    3.7590   -4.8776    1.3338 H   0  0  0  0  0  0  0  0  0  0  0  0
    3.6019   -6.6540   -0.9513 H   0  0  0  0  0  0  0  0  0  0  0  0
    2.4859   -6.8504   -3.1475 H   0  0  0  0  0  0  0  0  0  0  0  0
    0.8271   -5.2250   -3.8627 H   0  0  0  0  0  0  0  0  0  0  0  0
    0.2477   -3.3379   -2.4571 H   0  0  0  0  0  0  0  0  0  0  0  0
   -3.6571   -3.5017   -0.0941 H   0  0  0  0  0  0  0  0  0  0  0  0
   -5.3061   -0.6405   -0.9690 H   0  0  0  0  0  0  0  0  0  0  0  0
   -5.5010   -2.1542   -0.1183 H   0  0  0  0  0  0  0  0  0  0  0  0
   -6.5400   -0.3144    1.1231 H   0  0  0  0  0  0  0  0  0  0  0  0
   -5.2012   -0.9921    2.0183 H   0  0  0  0  0  0  0  0  0  0  0  0
   -5.1233    1.4571    2.0506 H   0  0  0  0  0  0  0  0  0  0  0  0
   -3.7457    0.8012    1.1992 H   0  0  0  0  0  0  0  0  0  0  0  0
   -4.7386    2.6013   -0.0011 H   0  0  0  0  0  0  0  0  0  0  0  0
   -4.8873    1.1791   -0.8552 H   0  0  0  0  0  0  0  0  0  0  0  0
   -2.6705    1.9328   -0.0042 H   0  0  0  0  0  0  0  0  0  0  0  0
   -5.3780    0.3840   -0.0838 H   0  0  0  0  0  0  0  0  0  0  0  0
   -4.6710    3.4226   -0.0301 H   0  0  0  0  0  0  0  0  0  0  0  0
   -7.3786    1.8739   -0.1097 H   0  0  0  0  0  0  0  0  0  0  0  0
  1  2  1  0  0  0  0
  1 31  1  0  0  0  0
  1 32  1  0  0  0  0
  1 33  1  0  0  0  0
  2  3  1  0  0  0  0
  2 29  1  0  0  0  0
  3  4  2  0  0  0  0
  3  5  1  0  0  0  0
  5  6  1  0  0  0  0
  5 15  2  0  0  0  0
  6  7  2  0  0  0  0
  6 14  1  0  0  0  0
  7  8  1  0  0  0  0
  7 34  1  0  0  0  0
  8  9  1  0  0  0  0
  8 35  1  0  0  0  0
  9 10  1  0  0  0  0
  9 14  2  0  0  0  0
 10 11  2  0  0  0  0
 10 36  1  0  0  0  0
 11 12  1  0  0  0  0
 11 37  1  0  0  0  0
 12 13  2  0  0  0  0
 12 38  1  0  0  0  0
 13 14  1  0  0  0  0
 13 39  1  0  0  0  0
 15 16  1  0  0  0  0
 15 29  1  0  0  0  0
 16 17  2  0  0  0  0
 16 28  1  0  0  0  0
 17 18  1  0  0  0  0
 17 40  1  0  0  0  0
 18 19  1  0  0  0  0
 18 23  1  0  0  0  0
 19 20  1  0  0  0  0
 19 41  1  0  0  0  0
 19 42  1  0  0  0  0
 20 21  1  0  0  0  0
 20 43  1  0  0  0  0
 20 44  1  0  0  0  0
 21 22  1  0  0  0  0
 21 45  1  0  0  0  0
 21 46  1  0  0  0  0
 22 47  1  0  0  0  0
 22 48  1  0  0  0  0
 23 24  1  0  0  0  0
 23 28  2  0  0  0  0
 24 25  2  0  0  0  0
 24 49  1  0  0  0  0
 25 26  1  0  0  0  0
 25 50  1  0  0  0  0
 26 27  2  0  0  0  0
 26 51  1  0  0  0  0
 27 28  1  0  0  0  0
 27 52  1  0  0  0  0
 29 30  2  0  0  0  0
M  END
