REMARK  Name = 
REMARK  6 active torsions:
REMARK  status: ('A' for Active; 'I' for Inactive)
REMARK    1  A    between atoms: C_2  and  C_3
REMARK    2  A    between atoms: C_6  and  C_7
REMARK    3  A    between atoms: C_10  and  C_11
REMARK    4  A    between atoms: C_15  and  O_16
REMARK    5  A    between atoms: O_16  and  C_17
REMARK    6  A    between atoms: C_21  and  O_22
REMARK                            x       y       z     vdW  Elec       q    Type
REMARK                         _______ _______ _______ _____ _____    ______ ____
ROOT
ATOM      1  C   UNL     1       7.304   2.486   0.262  0.00  0.00    +0.000 A 
ATOM      2  N   UNL     1       7.793   3.274  -0.761  0.00  0.00    +0.000 NA
ATOM      3  C   UNL     1       9.129   3.686  -0.739  0.00  0.00    +0.000 A 
ATOM      4  N   UNL     1       9.952   4.500  -1.632  0.00  0.00    +0.000 NA
ATOM      5  C   UNL     1      11.147   4.567  -1.123  0.00  0.00    +0.000 A 
ATOM      6  N   UNL     1      11.203   3.847   0.074  0.00  0.00    +0.000 N 
ATOM      7  C   UNL     1       9.963   3.297   0.324  0.00  0.00    +0.000 A 
ATOM      8  C   UNL     1       9.453   2.504   1.346  0.00  0.00    +0.000 A 
ATOM      9  C   UNL     1       8.135   2.107   1.317  0.00  0.00    +0.000 A 
ATOM     10 CL   UNL     1       7.486   1.104   2.635  0.00  0.00    +0.000 Cl
ATOM     11  H   UNL     1      12.027   3.745   0.666  0.00  0.00    +0.000 HD
ENDROOT
BRANCH   1  15
ATOM     12  C   UNL     1       3.178   1.399   0.077  0.00  0.00    +0.000 A 
ATOM     13  C   UNL     1       3.995   1.092  -0.998  0.00  0.00    +0.000 A 
ATOM     14  C   UNL     1       5.373   1.294  -0.747  0.00  0.00    +0.000 A 
ATOM     15  C   UNL     1       5.855   2.029   0.238  0.00  0.00    +0.000 A 
ATOM     16  C   UNL     1       4.980   2.356   1.237  0.00  0.00    +0.000 A 
ATOM     17  C   UNL     1       3.640   2.075   1.123  0.00  0.00    +0.000 A 
BRANCH  12  21
ATOM     18  C   UNL     1      -0.918   0.115  -0.143  0.00  0.00    +0.000 A 
ATOM     19  C   UNL     1      -0.627   1.491  -0.121  0.00  0.00    +0.000 A 
ATOM     20  C   UNL     1       0.695   1.898   0.129  0.00  0.00    +0.000 A 
ATOM     21  C   UNL     1       1.725   0.953   0.058  0.00  0.00    +0.000 A 
ATOM     22  C   UNL     1       1.408  -0.394  -0.030  0.00  0.00    +0.000 A 
ATOM     23  F   UNL     1       2.403  -1.283   0.043  0.00  0.00    +0.000 F 
ATOM     24  C   UNL     1       0.102  -0.847  -0.101  0.00  0.00    +0.000 A 
BRANCH  18  26
ATOM     25  N   UNL     1      -3.350  -0.716   0.153  0.00  0.00    +0.000 NA
ATOM     26  C   UNL     1      -2.280  -0.351  -0.039  0.00  0.00    +0.000 C 
ENDBRANCH  18  26
ENDBRANCH  12  21
ENDBRANCH   1  15
BRANCH   5  27
ATOM     27  O   UNL     1      12.237   5.271  -1.700  0.00  0.00    +0.000 OA
BRANCH  27  28
ATOM     28  C   UNL     1      12.063   5.971  -2.923  0.00  0.00    +0.000 C 
ATOM     29  C   UNL     1      11.114   6.907  -2.765  0.00  0.00    +0.000 C 
ATOM     30  O   UNL     1       9.806   6.325  -3.020  0.00  0.00    +0.000 OA
ATOM     31  C   UNL     1      10.041   5.094  -3.915  0.00  0.00    +0.000 C 
ATOM     32  C   UNL     1       9.611   5.417  -5.331  0.00  0.00    +0.000 C 
ATOM     33  C   UNL     1      10.652   6.063  -5.925  0.00  0.00    +0.000 C 
ATOM     34  O   UNL     1      11.912   5.581  -5.379  0.00  0.00    +0.000 OA
ATOM     35  C   UNL     1      11.591   5.001  -3.988  0.00  0.00    +0.000 C 
BRANCH  32  36
ATOM     36  O   UNL     1       8.444   6.226  -5.334  0.00  0.00    +0.000 OA
ATOM     37  H   UNL     1       8.627   7.077  -4.843  0.00  0.00    +0.000 HD
ENDBRANCH  32  36
ENDBRANCH  27  28
ENDBRANCH   5  27
TORSDOF 6
