REMARK  Name = 
REMARK  8 active torsions:
REMARK  status: ('A' for Active; 'I' for Inactive)
REMARK    1  A    between atoms: C_1  and  O_2
REMARK    2  A    between atoms: O_2  and  C_3
REMARK    3  A    between atoms: N_10  and  C_11
REMARK    4  A    between atoms: C_21  and  C_22
REMARK    5  A    between atoms: C_22  and  N_23
REMARK    6  A    between atoms: N_23  and  C_24
REMARK    7  A    between atoms: N_23  and  C_25
REMARK    8  A    between atoms: C_25  and  C_26
REMARK                            x       y       z     vdW  Elec       q    Type
REMARK                         _______ _______ _______ _____ _____    ______ ____
ROOT
ATOM      1  C   UNL     1       0.948  -2.285  -0.744  0.00  0.00    +0.000 A 
ATOM      2  C   UNL     1       0.068  -3.262  -1.117  0.00  0.00    +0.000 A 
ATOM      3  C   UNL     1       0.492  -4.321  -1.950  0.00  0.00    +0.000 A 
ATOM      4  N   UNL     1      -0.406  -5.280  -2.345  0.00  0.00    +0.000 NA
ATOM      5  C   UNL     1       0.055  -6.230  -3.111  0.00  0.00    +0.000 A 
ATOM      6  N   UNL     1       1.343  -6.379  -3.550  0.00  0.00    +0.000 NA
ATOM      7  C   UNL     1       2.216  -5.477  -3.169  0.00  0.00    +0.000 A 
ATOM      8  N   UNL     1       3.615  -5.613  -3.597  0.00  0.00    +0.000 N 
ATOM      9  C   UNL     1       1.846  -4.371  -2.353  0.00  0.00    +0.000 A 
ATOM     10  C   UNL     1       2.741  -3.357  -1.942  0.00  0.00    +0.000 A 
ATOM     11  C   UNL     1       2.293  -2.332  -1.159  0.00  0.00    +0.000 A 
ATOM     12  H   UNL     1       4.306  -4.920  -3.309  0.00  0.00    +0.000 HD
ENDROOT
BRANCH   8  13
ATOM     13  C   UNL     1       4.020  -6.747  -4.440  0.00  0.00    +0.000 A 
ATOM     14  C   UNL     1       5.076  -7.583  -4.141  0.00  0.00    +0.000 A 
ATOM     15  C   UNL     1       5.518  -8.535  -5.052  0.00  0.00    +0.000 A 
ATOM     16  C   UNL     1       4.877  -8.639  -6.285  0.00  0.00    +0.000 A 
ATOM     17  C   UNL     1       3.819  -7.801  -6.582  0.00  0.00    +0.000 A 
ATOM     18 CL   UNL     1       2.989  -7.950  -8.093  0.00  0.00    +0.000 Cl
ATOM     19  C   UNL     1       3.407  -6.865  -5.660  0.00  0.00    +0.000 A 
ATOM     20  F   UNL     1       2.359  -6.067  -5.952  0.00  0.00    +0.000 F 
ENDBRANCH   8  13
BRANCH   1  22
ATOM     21  C   UNL     1       1.079   0.040   0.048  0.00  0.00    +0.000 C 
ATOM     22  O   UNL     1       0.605  -1.290   0.208  0.00  0.00    +0.000 OA
ENDBRANCH   1  22
BRANCH  11  23
ATOM     23  C   UNL     1       3.253  -1.234  -0.731  0.00  0.00    +0.000 C 
BRANCH  23  24
ATOM     24  N   UNL     1       4.356  -1.821   0.043  0.00  0.00    +0.000 NA
ATOM     25  C   UNL     1       5.285  -0.759   0.457  0.00  0.00    +0.000 C 
BRANCH  24  26
ATOM     26  C   UNL     1       3.816  -2.491   1.235  0.00  0.00    +0.000 C 
BRANCH  26  27
ATOM     27  C   UNL     1       3.077  -1.478   2.094  0.00  0.00    +0.000 C 
ATOM     28  N   UNL     1       1.648  -1.664   2.384  0.00  0.00    +0.000 N 
ATOM     29  O   UNL     1       3.694  -0.471   2.562  0.00  0.00    +0.000 OA
ATOM     30  H   UNL     1       1.152  -0.985   2.961  0.00  0.00    +0.000 HD
ATOM     31  H   UNL     1       1.152  -2.473   2.009  0.00  0.00    +0.000 HD
ENDBRANCH  26  27
ENDBRANCH  24  26
ENDBRANCH  23  24
ENDBRANCH  11  23
TORSDOF 6
