REMARK  Name = 
REMARK  6 active torsions:
REMARK  status: ('A' for Active; 'I' for Inactive)
REMARK    1  A    between atoms: N_5  and  C_6
REMARK    2  A    between atoms: C_9  and  C_10
REMARK    3  A    between atoms: C_13  and  C_14
REMARK    4  A    between atoms: C_18  and  O_19
REMARK    5  A    between atoms: O_19  and  C_20
REMARK    6  A    between atoms: C_24  and  O_25
REMARK                            x       y       z     vdW  Elec       q    Type
REMARK                         _______ _______ _______ _____ _____    ______ ____
ROOT
ATOM      1  C   UNL     1      12.317  -6.678  -0.007  0.00  0.00    +0.000 A 
ATOM      2  N   UNL     1      13.148  -6.732  -1.123  0.00  0.00    +0.000 NA
ATOM      3  C   UNL     1      14.173  -7.556  -1.142  0.00  0.00    +0.000 A 
ATOM      4  N   UNL     1      15.002  -7.686  -2.117  0.00  0.00    +0.000 NA
ATOM      5  C   UNL     1      15.902  -8.580  -1.811  0.00  0.00    +0.000 A 
ATOM      6  N   UNL     1      15.608  -9.043  -0.571  0.00  0.00    +0.000 N 
ATOM      7  C   UNL     1      14.504  -8.366  -0.173  0.00  0.00    +0.000 A 
ATOM      8  C   UNL     1      13.821  -8.513   1.086  0.00  0.00    +0.000 A 
ATOM      9  C   UNL     1      12.580  -7.525   1.128  0.00  0.00    +0.000 A 
ATOM     10 CL   UNL     1      11.518  -7.457   2.555  0.00  0.00    +0.000 Cl
ATOM     11  H   UNL     1      16.115  -9.755  -0.045  0.00  0.00    +0.000 HD
ENDROOT
BRANCH   1  15
ATOM     12  C   UNL     1       8.855  -4.176  -0.040  0.00  0.00    +0.000 A 
ATOM     13  C   UNL     1       9.049  -5.030   1.033  0.00  0.00    +0.000 A 
ATOM     14  C   UNL     1      10.322  -5.646   1.054  0.00  0.00    +0.000 A 
ATOM     15  C   UNL     1      11.132  -5.726   0.014  0.00  0.00    +0.000 A 
ATOM     16  C   UNL     1      10.848  -4.906  -1.042  0.00  0.00    +0.000 A 
ATOM     17  C   UNL     1       9.687  -4.173  -1.075  0.00  0.00    +0.000 A 
BRANCH  12  21
ATOM     18  C   UNL     1       5.409  -1.657   0.093  0.00  0.00    +0.000 A 
ATOM     19  C   UNL     1       6.310  -1.608   1.144  0.00  0.00    +0.000 A 
ATOM     20  C   UNL     1       7.514  -2.309   0.901  0.00  0.00    +0.000 A 
ATOM     21  C   UNL     1       7.671  -3.224  -0.040  0.00  0.00    +0.000 A 
ATOM     22  C   UNL     1       6.711  -3.267  -1.012  0.00  0.00    +0.000 A 
ATOM     23  C   UNL     1       5.567  -2.513  -0.910  0.00  0.00    +0.000 A 
BRANCH  18  28
ATOM     24  O   UNL     1       0.978  -0.066   0.072  0.00  0.00    +0.000 OA
ATOM     25  C   UNL     1       2.248  -0.066   0.072  0.00  0.00    +0.000 A 
ATOM     26  C   UNL     1       3.051   1.026   0.072  0.00  0.00    +0.000 A 
ATOM     27  C   UNL     1       4.322   0.555   0.083  0.00  0.00    +0.000 A 
ATOM     28  N   UNL     1       4.253  -0.749   0.083  0.00  0.00    +0.000 N 
ATOM     29  N   UNL     1       3.021  -1.117   0.072  0.00  0.00    +0.000 N 
ATOM     30  H   UNL     1       2.698  -2.084   0.064  0.00  0.00    +0.000 HD
ENDBRANCH  18  28
ENDBRANCH  12  21
ENDBRANCH   1  15
BRANCH   5  31
ATOM     31  O   UNL     1      16.989  -8.992  -2.627  0.00  0.00    +0.000 OA
BRANCH  31  32
ATOM     32  C   UNL     1      17.893  -9.981  -2.158  0.00  0.00    +0.000 C 
ATOM     33  C   UNL     1      17.097 -11.043  -1.956  0.00  0.00    +0.000 C 
ATOM     34  O   UNL     1      16.440 -10.924  -0.663  0.00  0.00    +0.000 OA
ATOM     35  C   UNL     1      17.322  -9.993   0.191  0.00  0.00    +0.000 C 
ATOM     36  C   UNL     1      18.071 -10.819   1.216  0.00  0.00    +0.000 C 
ATOM     37  C   UNL     1      19.176 -11.317   0.596  0.00  0.00    +0.000 C 
ATOM     38  O   UNL     1      19.635 -10.385  -0.423  0.00  0.00    +0.000 OA
ATOM     39  C   UNL     1      18.416  -9.526  -0.810  0.00  0.00    +0.000 C 
BRANCH  36  40
ATOM     40  O   UNL     1      17.255 -11.868   1.717  0.00  0.00    +0.000 OA
ATOM     41  H   UNL     1      16.971 -12.459   0.961  0.00  0.00    +0.000 HD
ENDBRANCH  36  40
ENDBRANCH  31  32
ENDBRANCH   5  31
TORSDOF 6
