REMARK  Name = 
REMARK  8 active torsions:
REMARK  status: ('A' for Active; 'I' for Inactive)
REMARK    1  A    between atoms: C_1  and  O_2
REMARK    2  A    between atoms: O_2  and  C_3
REMARK    3  A    between atoms: N_10  and  C_11
REMARK    4  A    between atoms: C_21  and  C_22
REMARK    5  A    between atoms: C_22  and  N_23
REMARK    6  A    between atoms: N_23  and  C_24
REMARK    7  A    between atoms: C_24  and  C_25
REMARK    8  A    between atoms: C_24  and  C_26
REMARK                            x       y       z     vdW  Elec       q    Type
REMARK                         _______ _______ _______ _____ _____    ______ ____
ROOT
ATOM      1  C   UNL     1       0.901   1.415  -2.089  0.00  0.00    +0.000 A 
ATOM      2  C   UNL     1      -0.078   1.972  -2.864  0.00  0.00    +0.000 A 
ATOM      3  C   UNL     1       0.204   3.102  -3.663  0.00  0.00    +0.000 A 
ATOM      4  N   UNL     1      -0.792   3.672  -4.414  0.00  0.00    +0.000 NA
ATOM      5  C   UNL     1      -0.459   4.710  -5.130  0.00  0.00    +0.000 A 
ATOM      6  N   UNL     1       0.781   5.282  -5.223  0.00  0.00    +0.000 NA
ATOM      7  C   UNL     1       1.746   4.738  -4.522  0.00  0.00    +0.000 A 
ATOM      8  N   UNL     1       3.100   5.304  -4.612  0.00  0.00    +0.000 N 
ATOM      9  C   UNL     1       1.521   3.615  -3.676  0.00  0.00    +0.000 A 
ATOM     10  C   UNL     1       2.520   3.014  -2.877  0.00  0.00    +0.000 A 
ATOM     11  C   UNL     1       2.208   1.938  -2.094  0.00  0.00    +0.000 A 
ATOM     12  H   UNL     1       3.862   4.892  -4.073  0.00  0.00    +0.000 HD
ENDROOT
BRANCH   8  13
ATOM     13  C   UNL     1       3.356   6.463  -5.479  0.00  0.00    +0.000 A 
ATOM     14  C   UNL     1       4.378   6.380  -6.402  0.00  0.00    +0.000 A 
ATOM     15  C   UNL     1       4.763   7.485  -7.150  0.00  0.00    +0.000 A 
ATOM     16  C   UNL     1       4.098   8.695  -6.958  0.00  0.00    +0.000 A 
ATOM     17  C   UNL     1       3.074   8.777  -6.033  0.00  0.00    +0.000 A 
ATOM     18 CL   UNL     1       2.214  10.263  -5.817  0.00  0.00    +0.000 Cl
ATOM     19  C   UNL     1       2.719   7.664  -5.305  0.00  0.00    +0.000 A 
ATOM     20  F   UNL     1       1.703   7.749  -4.421  0.00  0.00    +0.000 F 
ENDBRANCH   8  13
BRANCH   1  22
ATOM     21  C   UNL     1       1.031  -0.017  -0.093  0.00  0.00    +0.000 C 
ATOM     22  O   UNL     1       0.558   0.215  -1.412  0.00  0.00    +0.000 OA
ENDBRANCH   1  22
BRANCH  11  23
ATOM     23  C   UNL     1       3.280   1.302  -1.224  0.00  0.00    +0.000 C 
BRANCH  23  24
ATOM     24  N   UNL     1       4.379   0.821  -2.073  0.00  0.00    +0.000 NA
ATOM     25  H   UNL     1       4.022   0.130  -2.732  0.00  0.00    +0.000 HD
BRANCH  24  26
ATOM     26  C   UNL     1       5.415   0.206  -1.232  0.00  0.00    +0.000 C 
ATOM     27  C   UNL     1       4.818  -0.963  -0.465  0.00  0.00    +0.000 C 
BRANCH  26  28
ATOM     28  C   UNL     1       6.552  -0.292  -2.110  0.00  0.00    +0.000 C 
ATOM     29  N   UNL     1       7.911   0.236  -1.922  0.00  0.00    +0.000 N 
ATOM     30  O   UNL     1       6.327  -1.164  -3.006  0.00  0.00    +0.000 OA
ATOM     31  H   UNL     1       8.674  -0.098  -2.511  0.00  0.00    +0.000 HD
ATOM     32  H   UNL     1       8.091   0.936  -1.202  0.00  0.00    +0.000 HD
ENDBRANCH  26  28
ENDBRANCH  24  26
ENDBRANCH  23  24
ENDBRANCH  11  23
TORSDOF 6
