REMARK  Name = 
REMARK  7 active torsions:
REMARK  status: ('A' for Active; 'I' for Inactive)
REMARK    1  A    between atoms: C_1  and  O_2
REMARK    2  A    between atoms: O_2  and  C_3
REMARK    3  A    between atoms: N_10  and  C_11
REMARK    4  A    between atoms: C_21  and  C_22
REMARK    5  A    between atoms: C_22  and  N_23
REMARK    6  A    between atoms: N_26  and  C_27
REMARK    7  A    between atoms: C_29  and  C_30
REMARK                            x       y       z     vdW  Elec       q    Type
REMARK                         _______ _______ _______ _____ _____    ______ ____
ROOT
ATOM      1  C   UNL     1       0.777   1.451  -1.949  0.00  0.00    +0.000 A 
ATOM      2  C   UNL     1      -0.204   2.032  -2.703  0.00  0.00    +0.000 A 
ATOM      3  C   UNL     1       0.076   3.188  -3.466  0.00  0.00    +0.000 A 
ATOM      4  N   UNL     1      -0.923   3.782  -4.195  0.00  0.00    +0.000 NA
ATOM      5  C   UNL     1      -0.593   4.843  -4.877  0.00  0.00    +0.000 A 
ATOM      6  N   UNL     1       0.647   5.418  -4.954  0.00  0.00    +0.000 NA
ATOM      7  C   UNL     1       1.614   4.853  -4.274  0.00  0.00    +0.000 A 
ATOM      8  N   UNL     1       2.968   5.422  -4.348  0.00  0.00    +0.000 N 
ATOM      9  C   UNL     1       1.392   3.703  -3.464  0.00  0.00    +0.000 A 
ATOM     10  C   UNL     1       2.393   3.076  -2.688  0.00  0.00    +0.000 A 
ATOM     11  C   UNL     1       2.084   1.975  -1.940  0.00  0.00    +0.000 A 
ATOM     12  H   UNL     1       3.731   4.994  -3.824  0.00  0.00    +0.000 HD
ENDROOT
BRANCH   8  13
ATOM     13  C   UNL     1       3.221   6.609  -5.177  0.00  0.00    +0.000 A 
ATOM     14  C   UNL     1       4.239   6.555  -6.107  0.00  0.00    +0.000 A 
ATOM     15  C   UNL     1       4.620   7.684  -6.821  0.00  0.00    +0.000 A 
ATOM     16  C   UNL     1       3.956   8.887  -6.588  0.00  0.00    +0.000 A 
ATOM     17  C   UNL     1       2.935   8.939  -5.657  0.00  0.00    +0.000 A 
ATOM     18 CL   UNL     1       2.075  10.417  -5.391  0.00  0.00    +0.000 Cl
ATOM     19  C   UNL     1       2.584   7.804  -4.963  0.00  0.00    +0.000 A 
ATOM     20  F   UNL     1       1.572   7.860  -4.072  0.00  0.00    +0.000 F 
ENDBRANCH   8  13
BRANCH   1  22
ATOM     21  C   UNL     1       0.907  -0.037   0.005  0.00  0.00    +0.000 C 
ATOM     22  O   UNL     1       0.434   0.232  -1.307  0.00  0.00    +0.000 OA
ENDBRANCH   1  22
BRANCH  11  23
ATOM     23  C   UNL     1       3.158   1.312  -1.094  0.00  0.00    +0.000 C 
BRANCH  23  24
ATOM     24  N   UNL     1       3.359  -0.075  -1.499  0.00  0.00    +0.000 NA
ATOM     25  C   UNL     1       4.392  -0.708  -0.705  0.00  0.00    +0.000 C 
ATOM     26  C   UNL     1       4.543  -2.180  -1.057  0.00  0.00    +0.000 C 
ATOM     27  N   UNL     1       4.761  -2.375  -2.485  0.00  0.00    +0.000 NA
ATOM     28  C   UNL     1       6.142  -1.980  -2.800  0.00  0.00    +0.000 C 
ATOM     29  C   UNL     1       3.870  -1.612  -3.319  0.00  0.00    +0.000 C 
ATOM     30  C   UNL     1       3.780  -0.167  -2.887  0.00  0.00    +0.000 C 
BRANCH  30  31
ATOM     31  C   UNL     1       2.757   0.544  -3.759  0.00  0.00    +0.000 C 
ATOM     32  N   UNL     1       3.165   1.689  -4.585  0.00  0.00    +0.000 N 
ATOM     33  O   UNL     1       1.550   0.147  -3.773  0.00  0.00    +0.000 OA
ATOM     34  H   UNL     1       2.479   2.166  -5.170  0.00  0.00    +0.000 HD
ATOM     35  H   UNL     1       4.134   2.007  -4.573  0.00  0.00    +0.000 HD
ENDBRANCH  30  31
ENDBRANCH  23  24
ENDBRANCH  11  23
TORSDOF 5
