REMARK  Name = 
REMARK  13 active torsions:
REMARK  status: ('A' for Active; 'I' for Inactive)
REMARK    1  A    between atoms: C_1  and  S_2
REMARK    2  A    between atoms: S_2  and  C_5
REMARK    3  A    between atoms: C_5  and  C_6
REMARK    4  A    between atoms: C_6  and  N_7
REMARK    5  A    between atoms: N_7  and  C_8
REMARK    6  A    between atoms: N_7  and  C_11
REMARK    7  A    between atoms: C_8  and  C_9
REMARK    8  A    between atoms: C_11  and  C_12
REMARK    9  A    between atoms: C_15  and  C_16
REMARK   10  A    between atoms: N_24  and  C_25
REMARK   11  A    between atoms: C_28  and  O_29
REMARK   12  A    between atoms: O_29  and  C_30
REMARK   13  A    between atoms: C_30  and  C_31
REMARK                            x       y       z     vdW  Elec       q    Type
REMARK                         _______ _______ _______ _____ _____    ______ ____
ROOT
ATOM      1  C   UNL     1      -4.246   0.034  -0.478  0.00  0.00    +0.000 A 
ATOM      2  C   UNL     1      -5.190  -0.039   0.564  0.00  0.00    +0.000 A 
ATOM      3  C   UNL     1      -6.298   0.763   0.561  0.00  0.00    +0.000 A 
ATOM      4  C   UNL     1      -6.495   1.699  -0.478  0.00  0.00    +0.000 A 
ATOM      5  N   UNL     1      -7.593   2.521  -0.457  0.00  0.00    +0.000 NA
ATOM      6  C   UNL     1      -7.713   3.359  -1.449  0.00  0.00    +0.000 A 
ATOM      7  N   UNL     1      -6.868   3.494  -2.517  0.00  0.00    +0.000 NA
ATOM      8  C   UNL     1      -5.821   2.705  -2.558  0.00  0.00    +0.000 A 
ATOM      9  N   UNL     1      -4.901   2.799  -3.701  0.00  0.00    +0.000 N 
ATOM     10  C   UNL     1      -5.551   1.760  -1.528  0.00  0.00    +0.000 A 
ATOM     11  C   UNL     1      -4.421   0.910  -1.511  0.00  0.00    +0.000 A 
ATOM     12  H   UNL     1      -4.082   2.192  -3.747  0.00  0.00    +0.000 HD
ENDROOT
BRANCH   9  13
ATOM     13  C   UNL     1      -5.160   3.768  -4.776  0.00  0.00    +0.000 A 
ATOM     14  C   UNL     1      -5.210   5.112  -4.444  0.00  0.00    +0.000 A 
ATOM     15  C   UNL     1      -5.286   6.080  -5.439  0.00  0.00    +0.000 A 
ATOM     16  C   UNL     1      -5.333   5.698  -6.776  0.00  0.00    +0.000 A 
ATOM     17  C   UNL     1      -5.313   4.348  -7.086  0.00  0.00    +0.000 A 
ATOM     18 CL   UNL     1      -5.390   3.881  -8.757  0.00  0.00    +0.000 Cl
ATOM     19  C   UNL     1      -5.197   3.369  -6.111  0.00  0.00    +0.000 A 
BRANCH  16  20
ATOM     20  O   UNL     1      -5.401   6.675  -7.804  0.00  0.00    +0.000 OA
BRANCH  20  21
ATOM     21  C   UNL     1      -5.449   6.271  -9.165  0.00  0.00    +0.000 C 
BRANCH  21  22
ATOM     22  C   UNL     1      -4.201   5.470  -9.500  0.00  0.00    +0.000 A 
ATOM     23  C   UNL     1      -3.036   6.107  -9.817  0.00  0.00    +0.000 A 
ATOM     24  C   UNL     1      -1.922   5.345 -10.136  0.00  0.00    +0.000 A 
ATOM     25  C   UNL     1      -1.990   3.961 -10.145  0.00  0.00    +0.000 A 
ATOM     26  C   UNL     1      -3.157   3.383  -9.810  0.00  0.00    +0.000 A 
ATOM     27  F   UNL     1      -3.228   2.028  -9.814  0.00  0.00    +0.000 F 
ATOM     28  C   UNL     1      -4.267   4.086  -9.486  0.00  0.00    +0.000 A 
ENDBRANCH  21  22
ENDBRANCH  20  21
ENDBRANCH  16  20
ENDBRANCH   9  13
BRANCH   1  32
ATOM     29  C   UNL     1      -0.968  -1.558  -0.432  0.00  0.00    +0.000 A 
ATOM     30  C   UNL     1      -1.712  -2.673  -0.434  0.00  0.00    +0.000 A 
ATOM     31  C   UNL     1      -3.055  -2.224  -0.449  0.00  0.00    +0.000 A 
ATOM     32  C   UNL     1      -3.022  -0.868  -0.453  0.00  0.00    +0.000 A 
ATOM     33  O   UNL     1      -1.720  -0.429  -0.431  0.00  0.00    +0.000 OA
BRANCH  29  34
ATOM     34  C   UNL     1       0.552  -1.558  -0.432  0.00  0.00    +0.000 C 
BRANCH  34  35
ATOM     35  N   UNL     1       1.042  -2.835   0.105  0.00  0.00    +0.000 NA
BRANCH  35  36
ATOM     36  C   UNL     1       0.552  -3.009   1.480  0.00  0.00    +0.000 C 
BRANCH  36  37
ATOM     37  C   UNL     1       1.059  -1.867   2.346  0.00  0.00    +0.000 C 
BRANCH  37  39
ATOM     38  C   UNL     1       1.059  -0.081  -0.008  0.00  0.00    +0.000 C 
ATOM     39  S   UNL     1       0.455  -0.294   1.685  0.00  0.00    +0.000 S 
ATOM     40  O   UNL     1       0.966   0.855   2.557  0.00  0.00    +0.000 OA
ATOM     41  O   UNL     1      -1.075  -0.294   1.685  0.00  0.00    +0.000 OA
ENDBRANCH  37  39
ENDBRANCH  36  37
ENDBRANCH  35  36
BRANCH  35  42
ATOM     42  C   UNL     1       0.552  -3.939  -0.733  0.00  0.00    +0.000 C 
BRANCH  42  43
ATOM     43  C   UNL     1      -0.968  -3.939  -0.733  0.00  0.00    +0.000 C 
ATOM     44  N   UNL     1      -2.229  -3.939  -0.733  0.00  0.00    +0.000 NA
ENDBRANCH  42  43
ENDBRANCH  35  42
ENDBRANCH  34  35
ENDBRANCH  29  34
ENDBRANCH   1  32
TORSDOF 12
