
 OpenBabel03132514253D

 34 37  0  0  0  0  0  0  0  0999 V2000
    0.9571   -0.0448    0.0785 O   0  0  0  0  0  0  0  0  0  0  0  0
    2.2280   -0.0448    0.0785 C   0  0  0  0  0  0  0  0  0  0  0  0
    2.9380    0.0129    1.3069 O   0  0  0  0  0  0  0  0  0  0  0  0
    2.9880   -0.1065   -1.2364 C   0  0  0  0  0  0  0  0  0  0  0  0
    4.0762   -0.8975   -1.5245 C   0  0  0  0  0  0  0  0  0  0  0  0
    4.4711   -0.7143   -2.8230 N   0  0  0  0  0  0  0  0  0  0  0  0
    3.6694    0.2458   -3.3963 C   0  0  0  0  0  0  0  0  0  0  0  0
    3.7453    0.8139   -4.6726 C   0  0  0  0  0  0  0  0  0  0  0  0
    2.8369    1.8177   -4.9434 C   0  0  0  0  0  0  0  0  0  0  0  0
    2.8871    2.5980   -6.5040 Cl  0  0  0  0  0  0  0  0  0  0  0  0
    1.8846    2.2661   -4.0113 C   0  0  0  0  0  0  0  0  0  0  0  0
    0.9265    3.3859   -4.3833 C   0  0  0  0  0  0  0  0  0  0  0  0
    0.0656    3.2421   -5.4419 C   0  0  0  0  0  0  0  0  0  0  0  0
   -0.8042    4.2650   -5.8272 C   0  0  0  0  0  0  0  0  0  0  0  0
   -0.7425    5.4579   -5.1117 C   0  0  0  0  0  0  0  0  0  0  0  0
    0.1465    5.5725   -4.0346 C   0  0  0  0  0  0  0  0  0  0  0  0
    0.9732    4.5616   -3.6264 C   0  0  0  0  0  0  0  0  0  0  0  0
    0.1192    6.8299   -3.4559 O   0  0  0  0  0  0  0  0  0  0  0  0
   -0.5812    7.7033   -4.3885 C   0  0  0  0  0  0  0  0  0  0  0  0
   -1.4926    6.7707   -5.2957 C   0  0  0  0  0  0  0  0  0  0  0  0
    1.8188    1.6878   -2.7536 C   0  0  0  0  0  0  0  0  0  0  0  0
    2.7145    0.6532   -2.4290 C   0  0  0  0  0  0  0  0  0  0  0  0
    3.9380    0.0129    1.3069 H   0  0  0  0  0  0  0  0  0  0  0  0
    4.5477   -1.5625   -0.8314 H   0  0  0  0  0  0  0  0  0  0  0  0
    5.2331   -1.2077   -3.2880 H   0  0  0  0  0  0  0  0  0  0  0  0
    4.4644    0.4898   -5.3956 H   0  0  0  0  0  0  0  0  0  0  0  0
    0.0603    2.3214   -5.9871 H   0  0  0  0  0  0  0  0  0  0  0  0
   -1.4897    4.1370   -6.6387 H   0  0  0  0  0  0  0  0  0  0  0  0
    1.6173    4.6642   -2.7782 H   0  0  0  0  0  0  0  0  0  0  0  0
   -1.1722    8.4266   -3.8666 H   0  0  0  0  0  0  0  0  0  0  0  0
    0.1224    8.2335   -4.9957 H   0  0  0  0  0  0  0  0  0  0  0  0
   -1.6176    7.0924   -6.3085 H   0  0  0  0  0  0  0  0  0  0  0  0
   -2.4971    6.7138   -4.9314 H   0  0  0  0  0  0  0  0  0  0  0  0
    1.0965    2.0238   -2.0393 H   0  0  0  0  0  0  0  0  0  0  0  0
  1  2  2  0  0  0  0
  2  3  1  0  0  0  0
  2  4  1  0  0  0  0
  3 23  1  0  0  0  0
  4  5  2  0  0  0  0
  4 22  1  0  0  0  0
  5  6  1  0  0  0  0
  5 24  1  0  0  0  0
  6  7  1  0  0  0  0
  6 25  1  0  0  0  0
  7  8  1  0  0  0  0
  7 22  2  0  0  0  0
  8  9  2  0  0  0  0
  8 26  1  0  0  0  0
  9 10  1  0  0  0  0
  9 11  1  0  0  0  0
 11 12  1  0  0  0  0
 11 21  2  0  0  0  0
 12 13  1  0  0  0  0
 12 17  2  0  0  0  0
 13 14  2  0  0  0  0
 13 27  1  0  0  0  0
 14 15  1  0  0  0  0
 14 28  1  0  0  0  0
 15 16  2  0  0  0  0
 15 20  1  0  0  0  0
 16 17  1  0  0  0  0
 16 18  1  0  0  0  0
 17 29  1  0  0  0  0
 18 19  1  0  0  0  0
 19 20  1  0  0  0  0
 19 30  1  0  0  0  0
 19 31  1  0  0  0  0
 20 32  1  0  0  0  0
 20 33  1  0  0  0  0
 21 22  1  0  0  0  0
 21 34  1  0  0  0  0
M  END
