REMARK  Name = 
REMARK  9 active torsions:
REMARK  status: ('A' for Active; 'I' for Inactive)
REMARK    1  A    between atoms: C_1  and  C_2
REMARK    2  A    between atoms: C_2  and  C_3
REMARK    3  A    between atoms: C_2  and  C_4
REMARK    4  A    between atoms: C_2  and  C_5
REMARK    5  A    between atoms: C_5  and  N_6
REMARK    6  A    between atoms: C_5  and  C_21
REMARK    7  A    between atoms: C_7  and  C_9
REMARK    8  A    between atoms: C_15  and  C_16
REMARK    9  A    between atoms: C_25  and  C_26
REMARK                            x       y       z     vdW  Elec       q    Type
REMARK                         _______ _______ _______ _____ _____    ______ ____
ROOT
ATOM      1  N   UNL     1       0.427  -0.973  -2.611  0.00  0.00    +0.000 N 
ATOM      2  C   UNL     1       1.383  -0.251  -3.464  0.00  0.00    +0.000 C 
ATOM      3  O   UNL     1       0.959   0.523  -4.379  0.00  0.00    +0.000 OA
ATOM      4  H   UNL     1      -0.575  -0.852  -2.754  0.00  0.00    +0.000 HD
ENDROOT
BRANCH   2   5
ATOM      5  C   UNL     1       2.877  -0.430  -3.252  0.00  0.00    +0.000 A 
ATOM      6  C   UNL     1       3.826   0.557  -3.218  0.00  0.00    +0.000 A 
ATOM      7  N   UNL     1       5.052  -0.002  -3.028  0.00  0.00    +0.000 N 
ATOM      8  C   UNL     1       4.955  -1.372  -2.910  0.00  0.00    +0.000 A 
ATOM      9  N   UNL     1       5.841  -2.346  -2.711  0.00  0.00    +0.000 NA
ATOM     10  C   UNL     1       5.450  -3.610  -2.627  0.00  0.00    +0.000 A 
ATOM     11  C   UNL     1       4.093  -3.950  -2.768  0.00  0.00    +0.000 A 
ATOM     12  N   UNL     1       3.208  -2.974  -2.963  0.00  0.00    +0.000 NA
ATOM     13  C   UNL     1       3.593  -1.703  -3.042  0.00  0.00    +0.000 A 
ATOM     14  H   UNL     1       5.926   0.522  -2.979  0.00  0.00    +0.000 HD
BRANCH  11  15
ATOM     15  C   UNL     1       3.646  -5.401  -2.697  0.00  0.00    +0.000 C 
ATOM     16  C   UNL     1       4.479  -6.580  -3.205  0.00  0.00    +0.000 C 
ATOM     17  C   UNL     1       3.434  -6.798  -2.108  0.00  0.00    +0.000 C 
ENDBRANCH  11  15
ENDBRANCH   2   5
BRANCH   1  18
ATOM     18  C   UNL     1       0.917  -1.868  -1.554  0.00  0.00    +0.000 C 
BRANCH  18  19
ATOM     19  C   UNL     1       2.438  -1.868  -1.554  0.00  0.00    +0.000 C 
ATOM     20  O   UNL     1       3.073  -2.951  -1.749  0.00  0.00    +0.000 OA
ATOM     21  N   UNL     1       3.172  -0.615  -1.327  0.00  0.00    +0.000 N 
ATOM     22  C   UNL     1       4.360   0.169  -1.913  0.00  0.00    +0.000 C 
ATOM     23  C   UNL     1       4.510   0.821  -0.529  0.00  0.00    +0.000 C 
ATOM     24  C   UNL     1       3.015   0.534  -0.315  0.00  0.00    +0.000 C 
BRANCH  23  25
ATOM     25  C   UNL     1       5.092   2.215  -0.358  0.00  0.00    +0.000 C 
ATOM     26  N   UNL     1       5.576   3.371  -0.215  0.00  0.00    +0.000 NA
ENDBRANCH  23  25
ENDBRANCH  18  19
BRANCH  18  28
ATOM     27  C   UNL     1       0.917   0.027   0.050  0.00  0.00    +0.000 C 
ATOM     28  C   UNL     1       0.411  -1.384  -0.205  0.00  0.00    +0.000 C 
ATOM     29  C   UNL     1       0.917  -2.309   0.889  0.00  0.00    +0.000 C 
ATOM     30  C   UNL     1      -1.109  -1.384  -0.205  0.00  0.00    +0.000 C 
ENDBRANCH  18  28
ENDBRANCH   1  18
TORSDOF 6
