REMARK  Name = 
REMARK  2 active torsions:
REMARK  status: ('A' for Active; 'I' for Inactive)
REMARK    1  A    between atoms: C_5  and  N_6
REMARK    2  A    between atoms: C_10  and  C_11
REMARK                            x       y       z     vdW  Elec       q    Type
REMARK                         _______ _______ _______ _____ _____    ______ ____
ROOT
ATOM      1  N   UNL     1       3.877   0.011   0.053  0.00  0.00    +0.000 N 
ATOM      2  N   UNL     1       4.593   0.541   0.981  0.00  0.00    +0.000 NA
ATOM      3  N   UNL     1       5.858   0.364   0.713  0.00  0.00    +0.000 NA
ATOM      4  C   UNL     1       5.933  -0.308  -0.461  0.00  0.00    +0.000 A 
ATOM      5  C   UNL     1       4.653  -0.521  -0.851  0.00  0.00    +0.000 A 
ENDROOT
BRANCH   1  10
ATOM      6 CL   UNL     1      -2.082   0.001   0.005  0.00  0.00    +0.000 Cl
ATOM      7  C   UNL     1      -0.345  -0.007   0.003  0.00  0.00    +0.000 A 
ATOM      8  C   UNL     1       0.329  -1.219  -0.019  0.00  0.00    +0.000 A 
ATOM      9  C   UNL     1       1.723  -1.199   0.002  0.00  0.00    +0.000 A 
ATOM     10  C   UNL     1       2.407   0.006   0.017  0.00  0.00    +0.000 A 
ATOM     11  C   UNL     1       1.712   1.210  -0.002  0.00  0.00    +0.000 A 
ATOM     12  C   UNL     1       0.321   1.207  -0.014  0.00  0.00    +0.000 A 
ENDBRANCH   1  10
BRANCH   5  13
ATOM     13  C   UNL     1       4.204  -1.245  -2.110  0.00  0.00    +0.000 A 
ATOM     14  C   UNL     1       4.530  -2.577  -2.377  0.00  0.00    +0.000 A 
ATOM     15  C   UNL     1       3.936  -3.220  -3.445  0.00  0.00    +0.000 A 
ATOM     16  N   UNL     1       3.064  -2.609  -4.262  0.00  0.00    +0.000 NA
ATOM     17  C   UNL     1       2.772  -1.329  -4.014  0.00  0.00    +0.000 A 
ATOM     18  C   UNL     1       3.298  -0.621  -2.958  0.00  0.00    +0.000 A 
ENDBRANCH   5  13
TORSDOF 2
