REMARK  Name = 
REMARK  8 active torsions:
REMARK  status: ('A' for Active; 'I' for Inactive)
REMARK    1  A    between atoms: C_2  and  O_3
REMARK    2  A    between atoms: C_2  and  C_4
REMARK    3  A    between atoms: C_11  and  C_12
REMARK    4  A    between atoms: C_15  and  O_16
REMARK    5  A    between atoms: O_16  and  C_17
REMARK    6  A    between atoms: C_17  and  C_18
REMARK    7  A    between atoms: C_18  and  C_19
REMARK    8  A    between atoms: C_19  and  C_20
REMARK                            x       y       z     vdW  Elec       q    Type
REMARK                         _______ _______ _______ _____ _____    ______ ____
ROOT
ATOM      1  C   UNL     1       2.990  -1.198  -0.434  0.00  0.00    +0.000 A 
ATOM      2  C   UNL     1       4.099  -1.746   0.168  0.00  0.00    +0.000 A 
ATOM      3  N   UNL     1       4.473  -2.897  -0.473  0.00  0.00    +0.000 N 
ATOM      4  C   UNL     1       3.634  -3.097  -1.545  0.00  0.00    +0.000 A 
ATOM      5  C   UNL     1       3.675  -4.093  -2.527  0.00  0.00    +0.000 A 
ATOM      6  C   UNL     1       2.732  -3.994  -3.530  0.00  0.00    +0.000 A 
ATOM      7 CL   UNL     1       2.738  -5.181  -4.809  0.00  0.00    +0.000 Cl
ATOM      8  C   UNL     1       1.777  -2.963  -3.590  0.00  0.00    +0.000 A 
ATOM      9  C   UNL     1       1.746  -1.989  -2.605  0.00  0.00    +0.000 A 
ATOM     10  C   UNL     1       2.678  -2.048  -1.554  0.00  0.00    +0.000 A 
ATOM     11  H   UNL     1       5.244  -3.506  -0.200  0.00  0.00    +0.000 HD
ENDROOT
BRANCH   8  12
ATOM     12  C   UNL     1       0.779  -2.919  -4.735  0.00  0.00    +0.000 A 
ATOM     13  C   UNL     1       0.754  -1.815  -5.572  0.00  0.00    +0.000 A 
ATOM     14  C   UNL     1      -0.389  -1.752  -6.403  0.00  0.00    +0.000 A 
ATOM     15  C   UNL     1      -1.184  -2.774  -6.662  0.00  0.00    +0.000 A 
ATOM     16  C   UNL     1      -1.063  -3.861  -5.842  0.00  0.00    +0.000 A 
ATOM     17  C   UNL     1      -0.051  -3.939  -4.916  0.00  0.00    +0.000 A 
BRANCH  15  18
ATOM     18  O   UNL     1      -2.114  -2.745  -7.735  0.00  0.00    +0.000 OA
BRANCH  18  19
ATOM     19  C   UNL     1      -2.951  -3.866  -7.979  0.00  0.00    +0.000 C 
BRANCH  19  20
ATOM     20  C   UNL     1      -2.092  -5.086  -8.271  0.00  0.00    +0.000 C 
BRANCH  20  21
ATOM     21  C   UNL     1      -1.197  -5.372  -7.076  0.00  0.00    +0.000 C 
BRANCH  21  22
ATOM     22  C   UNL     1      -2.056  -5.639  -5.851  0.00  0.00    +0.000 C 
ATOM     23  C   UNL     1      -1.676  -6.910  -5.072  0.00  0.00    +0.000 C 
ATOM     24  O   UNL     1      -1.955  -6.112  -3.788  0.00  0.00    +0.000 OA
ATOM     25  C   UNL     1      -1.644  -4.843  -4.599  0.00  0.00    +0.000 C 
ENDBRANCH  21  22
ENDBRANCH  20  21
ENDBRANCH  19  20
ENDBRANCH  18  19
ENDBRANCH  15  18
ENDBRANCH   8  12
BRANCH   1  27
ATOM     26  O   UNL     1       0.959   0.065  -0.064  0.00  0.00    +0.000 OA
ATOM     27  C   UNL     1       2.230   0.065  -0.064  0.00  0.00    +0.000 C 
BRANCH  27  28
ATOM     28  O   UNL     1       2.940   1.245   0.282  0.00  0.00    +0.000 OA
ATOM     29  H   UNL     1       3.940   1.245   0.282  0.00  0.00    +0.000 HD
ENDBRANCH  27  28
ENDBRANCH   1  27
TORSDOF 8
