
 OpenBabel03132514253D

 41 43  0  0  0  0  0  0  0  0999 V2000
    1.0553   -0.0276   -0.0786 O   0  0  0  0  0  0  0  0  0  0  0  0
    2.3262   -0.0276   -0.0786 C   0  0  0  0  0  0  0  0  0  0  0  0
    3.0362    0.5773   -1.1492 O   0  0  0  0  0  0  0  0  0  0  0  0
    3.0862   -0.6752    1.0675 C   0  0  0  0  0  0  0  0  0  0  0  0
    2.4660   -0.3935    2.4469 C   0  0  0  0  0  0  0  0  0  0  0  0
    2.7836   -1.8552    2.8010 N   0  0  0  0  0  0  0  0  0  0  0  0
    4.1012   -2.0658    3.4177 C   0  0  0  0  0  0  0  0  0  0  0  0
    5.1880   -1.5992    2.4628 C   0  0  0  0  0  0  0  0  0  0  0  0
    6.1221   -2.4994    1.9776 C   0  0  0  0  0  0  0  0  0  0  0  0
    7.2094   -1.8915    1.3064 C   0  0  0  0  0  0  0  0  0  0  0  0
    7.2072   -0.6542    0.8447 C   0  0  0  0  0  0  0  0  0  0  0  0
    8.1799   -0.2010   -0.0853 O   0  0  0  0  0  0  0  0  0  0  0  0
    8.1417    1.1378   -0.5570 C   0  0  0  0  0  0  0  0  0  0  0  0
    6.8171    1.3902   -1.2586 C   0  0  0  0  0  0  0  0  0  0  0  0
    6.4523    2.6902   -1.5678 C   0  0  0  0  0  0  0  0  0  0  0  0
    5.0979    2.8293   -1.9528 C   0  0  0  0  0  0  0  0  0  0  0  0
    4.3244    1.8331   -2.3444 C   0  0  0  0  0  0  0  0  0  0  0  0
    2.7810    2.1181   -3.1840 Cl  0  0  0  0  0  0  0  0  0  0  0  0
    4.7730    0.5709   -2.0703 C   0  0  0  0  0  0  0  0  0  0  0  0
    3.7057   -0.8227   -2.3653 Cl  0  0  0  0  0  0  0  0  0  0  0  0
    6.0358    0.3628   -1.5704 C   0  0  0  0  0  0  0  0  0  0  0  0
    6.2180    0.1669    1.3102 C   0  0  0  0  0  0  0  0  0  0  0  0
    5.1929   -0.3277    2.0798 C   0  0  0  0  0  0  0  0  0  0  0  0
    2.7240   -2.1545    1.2939 C   0  0  0  0  0  0  0  0  0  0  0  0
    4.0362    0.5773   -1.1492 H   0  0  0  0  0  0  0  0  0  0  0  0
    4.0796   -0.3684    0.8147 H   0  0  0  0  0  0  0  0  0  0  0  0
    2.7924    0.4212    3.0589 H   0  0  0  0  0  0  0  0  0  0  0  0
    1.4234   -0.1536    2.4285 H   0  0  0  0  0  0  0  0  0  0  0  0
    4.1624   -1.5069    4.3281 H   0  0  0  0  0  0  0  0  0  0  0  0
    4.2343   -3.1064    3.6283 H   0  0  0  0  0  0  0  0  0  0  0  0
    6.0300   -3.5584    2.0992 H   0  0  0  0  0  0  0  0  0  0  0  0
    8.0949   -2.4748    1.1631 H   0  0  0  0  0  0  0  0  0  0  0  0
    8.2413    1.8101    0.2695 H   0  0  0  0  0  0  0  0  0  0  0  0
    8.9457    1.2967   -1.2449 H   0  0  0  0  0  0  0  0  0  0  0  0
    7.1330    3.5144   -1.5199 H   0  0  0  0  0  0  0  0  0  0  0  0
    4.6706    3.8099   -1.9247 H   0  0  0  0  0  0  0  0  0  0  0  0
    6.3929   -0.6362   -1.4310 H   0  0  0  0  0  0  0  0  0  0  0  0
    6.2427    1.2097    1.0718 H   0  0  0  0  0  0  0  0  0  0  0  0
    4.3912    0.3174    2.3731 H   0  0  0  0  0  0  0  0  0  0  0  0
    1.8663   -2.6041    0.8388 H   0  0  0  0  0  0  0  0  0  0  0  0
    3.4560   -2.8533    0.9466 H   0  0  0  0  0  0  0  0  0  0  0  0
  1  2  2  0  0  0  0
  2  3  1  0  0  0  0
  2  4  1  0  0  0  0
  3 25  1  0  0  0  0
  4  5  1  0  0  0  0
  4 24  1  0  0  0  0
  4 26  1  0  0  0  0
  5  6  1  0  0  0  0
  5 27  1  0  0  0  0
  5 28  1  0  0  0  0
  6  7  1  0  0  0  0
  6 24  1  0  0  0  0
  7  8  1  0  0  0  0
  7 29  1  0  0  0  0
  7 30  1  0  0  0  0
  8  9  1  0  0  0  0
  8 23  2  0  0  0  0
  9 10  2  0  0  0  0
  9 31  1  0  0  0  0
 10 11  1  0  0  0  0
 10 32  1  0  0  0  0
 11 12  1  0  0  0  0
 11 22  2  0  0  0  0
 12 13  1  0  0  0  0
 13 14  1  0  0  0  0
 13 33  1  0  0  0  0
 13 34  1  0  0  0  0
 14 15  1  0  0  0  0
 14 21  2  0  0  0  0
 15 16  2  0  0  0  0
 15 35  1  0  0  0  0
 16 17  1  0  0  0  0
 16 36  1  0  0  0  0
 17 18  1  0  0  0  0
 17 19  2  0  0  0  0
 19 20  1  0  0  0  0
 19 21  1  0  0  0  0
 21 37  1  0  0  0  0
 22 23  1  0  0  0  0
 22 38  1  0  0  0  0
 23 39  1  0  0  0  0
 24 40  1  0  0  0  0
 24 41  1  0  0  0  0
M  END
