
 OpenBabel03132514253D

 39 42  0  0  0  0  0  0  0  0999 V2000
    1.0278   -0.0943    0.0181 O   0  0  0  0  0  0  0  0  0  0  0  0
    2.2987   -0.0943    0.0181 C   0  0  0  0  0  0  0  0  0  0  0  0
    3.0087   -1.2228    0.5069 O   0  0  0  0  0  0  0  0  0  0  0  0
    3.0587    1.1136   -0.5050 C   0  0  0  0  0  0  0  0  0  0  0  0
    4.1223    1.0127   -1.2472 N   0  0  0  0  0  0  0  0  0  0  0  0
    4.6428    2.2814   -1.5195 N   0  0  0  0  0  0  0  0  0  0  0  0
    3.8512    3.2311   -0.9064 C   0  0  0  0  0  0  0  0  0  0  0  0
    3.8948    4.6191   -0.8409 C   0  0  0  0  0  0  0  0  0  0  0  0
    2.9322    5.3050   -0.1349 C   0  0  0  0  0  0  0  0  0  0  0  0
    2.9860    7.0829   -0.0669 Cl  0  0  0  0  0  0  0  0  0  0  0  0
    1.9150    4.6175    0.5277 C   0  0  0  0  0  0  0  0  0  0  0  0
    0.8677    5.3895    1.3136 C   0  0  0  0  0  0  0  0  0  0  0  0
    0.0124    6.3536    0.7109 C   0  0  0  0  0  0  0  0  0  0  0  0
   -0.7642    7.1918    1.5275 C   0  0  0  0  0  0  0  0  0  0  0  0
   -0.9125    6.9152    2.7897 C   0  0  0  0  0  0  0  0  0  0  0  0
   -1.7438    7.8296    3.6746 C   0  0  0  0  0  0  0  0  0  0  0  0
   -0.8559    8.3647    4.7909 C   0  0  0  0  0  0  0  0  0  0  0  0
   -1.1079    7.3738    5.9307 C   0  0  0  0  0  0  0  0  0  0  0  0
   -2.4581    6.8791    5.7331 O   0  0  0  0  0  0  0  0  0  0  0  0
   -2.9472    7.2797    4.4465 C   0  0  0  0  0  0  0  0  0  0  0  0
   -0.3069    5.7752    3.3347 C   0  0  0  0  0  0  0  0  0  0  0  0
    0.7073    5.1061    2.6073 C   0  0  0  0  0  0  0  0  0  0  0  0
    1.8552    3.2392    0.4728 C   0  0  0  0  0  0  0  0  0  0  0  0
    2.8249    2.5333   -0.2456 C   0  0  0  0  0  0  0  0  0  0  0  0
    4.0087   -1.2228    0.5069 H   0  0  0  0  0  0  0  0  0  0  0  0
    5.4728    2.4739   -2.0802 H   0  0  0  0  0  0  0  0  0  0  0  0
    4.6762    5.1541   -1.3390 H   0  0  0  0  0  0  0  0  0  0  0  0
   -0.0386    6.4393   -0.3544 H   0  0  0  0  0  0  0  0  0  0  0  0
   -1.2340    8.0583    1.1111 H   0  0  0  0  0  0  0  0  0  0  0  0
   -2.1281    8.5101    2.9437 H   0  0  0  0  0  0  0  0  0  0  0  0
   -1.0734    9.3784    5.0555 H   0  0  0  0  0  0  0  0  0  0  0  0
    0.1735    8.3625    4.4989 H   0  0  0  0  0  0  0  0  0  0  0  0
   -0.3923    6.5782    5.9263 H   0  0  0  0  0  0  0  0  0  0  0  0
   -1.0260    7.8659    6.8772 H   0  0  0  0  0  0  0  0  0  0  0  0
   -3.7174    8.0168    4.5381 H   0  0  0  0  0  0  0  0  0  0  0  0
   -3.3637    6.4393    3.9316 H   0  0  0  0  0  0  0  0  0  0  0  0
   -0.6090    5.4124    4.2949 H   0  0  0  0  0  0  0  0  0  0  0  0
    1.3349    4.3847    3.0876 H   0  0  0  0  0  0  0  0  0  0  0  0
    1.0711    2.7142    0.9773 H   0  0  0  0  0  0  0  0  0  0  0  0
  1  2  2  0  0  0  0
  2  3  1  0  0  0  0
  2  4  1  0  0  0  0
  3 25  1  0  0  0  0
  4  5  2  0  0  0  0
  4 24  1  0  0  0  0
  5  6  1  0  0  0  0
  6  7  1  0  0  0  0
  6 26  1  0  0  0  0
  7  8  1  0  0  0  0
  7 24  2  0  0  0  0
  8  9  2  0  0  0  0
  8 27  1  0  0  0  0
  9 10  1  0  0  0  0
  9 11  1  0  0  0  0
 11 12  1  0  0  0  0
 11 23  2  0  0  0  0
 12 13  1  0  0  0  0
 12 22  2  0  0  0  0
 13 14  2  0  0  0  0
 13 28  1  0  0  0  0
 14 15  1  0  0  0  0
 14 29  1  0  0  0  0
 15 16  1  0  0  0  0
 15 21  2  0  0  0  0
 16 17  1  0  0  0  0
 16 20  1  0  0  0  0
 16 30  1  0  0  0  0
 17 18  1  0  0  0  0
 17 31  1  0  0  0  0
 17 32  1  0  0  0  0
 18 19  1  0  0  0  0
 18 33  1  0  0  0  0
 18 34  1  0  0  0  0
 19 20  1  0  0  0  0
 20 35  1  0  0  0  0
 20 36  1  0  0  0  0
 21 22  1  0  0  0  0
 21 37  1  0  0  0  0
 22 38  1  0  0  0  0
 23 24  1  0  0  0  0
 23 39  1  0  0  0  0
M  END
