
 OpenBabel03132514253D

 80 84  0  0  0  0  0  0  0  0999 V2000
    2.4920    0.0040   -0.0140 C   0  0  0  0  0  0  0  0  0  0  0  0
    0.9910   -0.0050    0.0130 C   0  0  0  0  0  0  0  0  0  0  0  0
    0.2580   -1.1970    0.0060 C   0  0  0  0  0  0  0  0  0  0  0  0
   -1.1080   -1.2020    0.0010 C   0  0  0  0  0  0  0  0  0  0  0  0
   -1.8692   -2.5176    0.0106 C   0  0  0  0  0  0  0  0  0  0  0  0
   -2.7363   -2.9511   -0.9254 C   0  0  0  0  0  0  0  0  0  0  0  0
   -3.1855   -4.2151   -0.4830 C   0  0  0  0  0  0  0  0  0  0  0  0
   -4.1550   -5.0538   -1.2024 N   0  0  0  0  0  0  0  0  0  0  0  0
   -4.5533   -6.3562   -0.6491 C   0  0  0  0  0  0  0  0  0  0  0  0
   -4.6043   -7.3572   -1.4306 O   0  0  0  0  0  0  0  0  0  0  0  0
   -4.9024   -6.5578    0.7970 C   0  0  0  0  0  0  0  0  0  0  0  0
   -5.1600   -7.8274    1.3260 C   0  0  0  0  0  0  0  0  0  0  0  0
   -5.5061   -8.0050    2.6354 C   0  0  0  0  0  0  0  0  0  0  0  0
   -5.6232   -6.8941    3.4714 C   0  0  0  0  0  0  0  0  0  0  0  0
   -6.0332   -7.0800    4.9232 C   0  0  0  0  0  0  0  0  0  0  0  0
   -7.2692   -6.3493    5.1806 N   0  0  0  0  0  0  0  0  0  0  0  0
   -7.7058   -6.5256    6.5505 C   0  0  0  0  0  0  0  0  0  0  0  0
   -8.9415   -5.6920    6.8534 C   0  0  0  0  0  0  0  0  0  0  0  0
  -10.0160   -5.9535    5.9040 N   0  0  0  0  0  0  0  0  0  0  0  0
  -10.6080   -7.2607    6.2229 C   0  0  0  0  0  0  0  0  0  0  0  0
   -9.5868   -5.9730    4.5306 C   0  0  0  0  0  0  0  0  0  0  0  0
   -8.3502   -6.8187    4.3306 C   0  0  0  0  0  0  0  0  0  0  0  0
   -5.3684   -5.6267    2.9862 C   0  0  0  0  0  0  0  0  0  0  0  0
   -5.0212   -5.4733    1.6551 C   0  0  0  0  0  0  0  0  0  0  0  0
   -2.6167   -4.5429    0.6653 N   0  0  0  0  0  0  0  0  0  0  0  0
   -1.8067   -3.4844    0.9666 N   0  0  0  0  0  0  0  0  0  0  0  0
   -1.7990    0.0100   -0.0130 C   0  0  0  0  0  0  0  0  0  0  0  0
   -1.1090    1.2060    0.0020 C   0  0  0  0  0  0  0  0  0  0  0  0
    0.2750    1.1840    0.0050 C   0  0  0  0  0  0  0  0  0  0  0  0
    1.0084    2.4580   -0.0004 N   0  0  0  0  0  0  0  0  0  0  0  0
    0.2718    3.7301   -0.0089 C   0  0  0  0  0  0  0  0  0  0  0  0
    0.9059    4.8315   -0.0137 O   0  0  0  0  0  0  0  0  0  0  0  0
   -1.1982    3.7282   -0.0120 N   0  0  0  0  0  0  0  0  0  0  0  0
   -1.9316    2.4542   -0.0065 C   0  0  0  0  0  0  0  0  0  0  0  0
   -1.6056    1.3719    0.8264 C   0  0  0  0  0  0  0  0  0  0  0  0
   -2.5165    0.4157    0.5058 C   0  0  0  0  0  0  0  0  0  0  0  0
   -2.5856   -0.9722    1.1219 C   0  0  0  0  0  0  0  0  0  0  0  0
   -3.9347   -1.1604    1.7964 C   0  0  0  0  0  0  0  0  0  0  0  0
   -2.4130   -2.0189    0.0333 C   0  0  0  0  0  0  0  0  0  0  0  0
   -1.4784   -1.1251    2.1519 C   0  0  0  0  0  0  0  0  0  0  0  0
   -3.3552    0.8919   -0.4499 O   0  0  0  0  0  0  0  0  0  0  0  0
   -2.9651    2.2043   -0.7810 N   0  0  0  0  0  0  0  0  0  0  0  0
    2.8673   -0.5130    0.8443 H   0  0  0  0  0  0  0  0  0  0  0  0
    2.8357   -0.4833   -0.9024 H   0  0  0  0  0  0  0  0  0  0  0  0
    2.8429    1.0148   -0.0032 H   0  0  0  0  0  0  0  0  0  0  0  0
    0.7818   -2.1300    0.0045 H   0  0  0  0  0  0  0  0  0  0  0  0
   -3.0254   -2.4417   -1.8208 H   0  0  0  0  0  0  0  0  0  0  0  0
   -4.5515   -4.7321   -2.0854 H   0  0  0  0  0  0  0  0  0  0  0  0
   -5.0838   -8.6825    0.6873 H   0  0  0  0  0  0  0  0  0  0  0  0
   -5.6861   -8.9884    3.0170 H   0  0  0  0  0  0  0  0  0  0  0  0
   -5.2600   -6.7057    5.5612 H   0  0  0  0  0  0  0  0  0  0  0  0
   -6.1874   -8.1205    5.1192 H   0  0  0  0  0  0  0  0  0  0  0  0
   -7.9530   -7.5567    6.6940 H   0  0  0  0  0  0  0  0  0  0  0  0
   -6.9159   -6.2281    7.2081 H   0  0  0  0  0  0  0  0  0  0  0  0
   -8.6732   -4.6591    6.7764 H   0  0  0  0  0  0  0  0  0  0  0  0
   -9.2851   -5.9274    7.8390 H   0  0  0  0  0  0  0  0  0  0  0  0
   -9.8582   -8.0201    6.1458 H   0  0  0  0  0  0  0  0  0  0  0  0
  -10.9963   -7.2427    7.2198 H   0  0  0  0  0  0  0  0  0  0  0  0
  -11.4004   -7.4707    5.5353 H   0  0  0  0  0  0  0  0  0  0  0  0
   -9.3476   -4.9693    4.2470 H   0  0  0  0  0  0  0  0  0  0  0  0
  -10.3770   -6.3702    3.9283 H   0  0  0  0  0  0  0  0  0  0  0  0
   -8.0430   -6.7458    3.3082 H   0  0  0  0  0  0  0  0  0  0  0  0
   -8.5754   -7.8354    4.5766 H   0  0  0  0  0  0  0  0  0  0  0  0
   -5.4383   -4.7751    3.6302 H   0  0  0  0  0  0  0  0  0  0  0  0
   -4.8390   -4.4894    1.2763 H   0  0  0  0  0  0  0  0  0  0  0  0
   -1.2271   -3.4260    1.8040 H   0  0  0  0  0  0  0  0  0  0  0  0
   -2.8688    0.0127   -0.0355 H   0  0  0  0  0  0  0  0  0  0  0  0
   -1.6368    2.1367    0.0112 H   0  0  0  0  0  0  0  0  0  0  0  0
    2.0284    2.4593    0.0017 H   0  0  0  0  0  0  0  0  0  0  0  0
   -1.7093    4.6109   -0.0179 H   0  0  0  0  0  0  0  0  0  0  0  0
   -0.8188    1.3133    1.5492 H   0  0  0  0  0  0  0  0  0  0  0  0
   -4.7141   -1.0528    1.0713 H   0  0  0  0  0  0  0  0  0  0  0  0
   -3.9834   -2.1374    2.2301 H   0  0  0  0  0  0  0  0  0  0  0  0
   -4.0562   -0.4236    2.5627 H   0  0  0  0  0  0  0  0  0  0  0  0
   -1.4634   -1.8864   -0.4416 H   0  0  0  0  0  0  0  0  0  0  0  0
   -2.4617   -2.9959    0.4670 H   0  0  0  0  0  0  0  0  0  0  0  0
   -3.1925   -1.9113   -0.6918 H   0  0  0  0  0  0  0  0  0  0  0  0
   -0.5287   -0.9925    1.6771 H   0  0  0  0  0  0  0  0  0  0  0  0
   -1.5999   -0.3882    2.9182 H   0  0  0  0  0  0  0  0  0  0  0  0
   -1.5271   -2.1020    2.5856 H   0  0  0  0  0  0  0  0  0  0  0  0
  1  2  1  0  0  0  0
  1 43  1  0  0  0  0
  1 44  1  0  0  0  0
  1 45  1  0  0  0  0
  2  3  1  0  0  0  0
  2 29  2  0  0  0  0
  3  4  2  0  0  0  0
  3 46  1  0  0  0  0
  4  5  1  0  0  0  0
  4 27  1  0  0  0  0
  5  6  2  0  0  0  0
  5 26  1  0  0  0  0
  6  7  1  0  0  0  0
  6 47  1  0  0  0  0
  7  8  1  0  0  0  0
  7 25  2  0  0  0  0
  8  9  1  0  0  0  0
  8 48  1  0  0  0  0
  9 10  2  0  0  0  0
  9 11  1  0  0  0  0
 11 12  1  0  0  0  0
 11 24  2  0  0  0  0
 12 13  2  0  0  0  0
 12 49  1  0  0  0  0
 13 14  1  0  0  0  0
 13 50  1  0  0  0  0
 14 15  1  0  0  0  0
 14 23  2  0  0  0  0
 15 16  1  0  0  0  0
 15 51  1  0  0  0  0
 15 52  1  0  0  0  0
 16 17  1  0  0  0  0
 16 22  1  0  0  0  0
 17 18  1  0  0  0  0
 17 53  1  0  0  0  0
 17 54  1  0  0  0  0
 18 19  1  0  0  0  0
 18 55  1  0  0  0  0
 18 56  1  0  0  0  0
 19 20  1  0  0  0  0
 19 21  1  0  0  0  0
 20 57  1  0  0  0  0
 20 58  1  0  0  0  0
 20 59  1  0  0  0  0
 21 22  1  0  0  0  0
 21 60  1  0  0  0  0
 21 61  1  0  0  0  0
 22 62  1  0  0  0  0
 22 63  1  0  0  0  0
 23 24  1  0  0  0  0
 23 64  1  0  0  0  0
 24 65  1  0  0  0  0
 25 26  1  0  0  0  0
 26 66  1  0  0  0  0
 27 28  2  0  0  0  0
 27 67  1  0  0  0  0
 28 29  1  0  0  0  0
 28 68  1  0  0  0  0
 29 30  1  0  0  0  0
 30 31  1  0  0  0  0
 30 69  1  0  0  0  0
 31 32  2  0  0  0  0
 31 33  1  0  0  0  0
 33 34  1  0  0  0  0
 33 70  1  0  0  0  0
 34 35  1  0  0  0  0
 34 42  2  0  0  0  0
 35 36  2  0  0  0  0
 35 71  1  0  0  0  0
 36 37  1  0  0  0  0
 36 41  1  0  0  0  0
 37 38  1  0  0  0  0
 37 39  1  0  0  0  0
 37 40  1  0  0  0  0
 38 72  1  0  0  0  0
 38 73  1  0  0  0  0
 38 74  1  0  0  0  0
 39 75  1  0  0  0  0
 39 76  1  0  0  0  0
 39 77  1  0  0  0  0
 40 78  1  0  0  0  0
 40 79  1  0  0  0  0
 40 80  1  0  0  0  0
 41 42  1  0  0  0  0
M  END
