REMARK  Name = 
REMARK  10 active torsions:
REMARK  status: ('A' for Active; 'I' for Inactive)
REMARK    1  A    between atoms: C_2  and  O_3
REMARK    2  A    between atoms: C_2  and  C_4
REMARK    3  A    between atoms: C_4  and  C_5
REMARK    4  A    between atoms: C_5  and  C_6
REMARK    5  A    between atoms: C_6  and  C_7
REMARK    6  A    between atoms: C_10  and  C_11
REMARK    7  A    between atoms: C_14  and  C_15
REMARK    8  A    between atoms: C_19  and  O_20
REMARK    9  A    between atoms: O_20  and  C_21
REMARK   10  A    between atoms: C_25  and  O_26
REMARK                            x       y       z     vdW  Elec       q    Type
REMARK                         _______ _______ _______ _____ _____    ______ ____
ROOT
ATOM      1  C   UNL     1      -0.104   5.598  -8.975  0.00  0.00    +0.000 A 
ATOM      2  N   UNL     1       0.468   5.327 -10.202  0.00  0.00    +0.000 NA
ATOM      3  C   UNL     1       0.444   6.300 -11.205  0.00  0.00    +0.000 A 
ATOM      4  N   UNL     1       0.941   6.350 -12.579  0.00  0.00    +0.000 NA
ATOM      5  C   UNL     1       0.643   7.517 -13.070  0.00  0.00    +0.000 A 
ATOM      6  N   UNL     1      -0.033   8.284 -12.116  0.00  0.00    +0.000 N 
ATOM      7  C   UNL     1      -0.162   7.545 -10.958  0.00  0.00    +0.000 A 
ATOM      8  C   UNL     1      -0.734   7.799  -9.717  0.00  0.00    +0.000 A 
ATOM      9  C   UNL     1      -0.710   6.832  -8.737  0.00  0.00    +0.000 A 
ATOM     10 CL   UNL     1      -1.456   7.159  -7.155  0.00  0.00    +0.000 Cl
ATOM     11  H   UNL     1      -0.374   9.235 -12.254  0.00  0.00    +0.000 HD
ENDROOT
BRANCH   1  15
ATOM     12  C   UNL     1       0.194   2.580  -5.967  0.00  0.00    +0.000 A 
ATOM     13  C   UNL     1       1.348   2.991  -6.613  0.00  0.00    +0.000 A 
ATOM     14  C   UNL     1       1.174   4.137  -7.424  0.00  0.00    +0.000 A 
ATOM     15  C   UNL     1       0.005   4.585  -7.846  0.00  0.00    +0.000 A 
ATOM     16  C   UNL     1      -1.101   4.089  -7.214  0.00  0.00    +0.000 A 
ATOM     17  C   UNL     1      -0.996   3.059  -6.311  0.00  0.00    +0.000 A 
BRANCH  12  21
ATOM     18  C   UNL     1       0.885  -0.541  -3.134  0.00  0.00    +0.000 A 
ATOM     19  C   UNL     1       1.543   0.667  -2.967  0.00  0.00    +0.000 A 
ATOM     20  C   UNL     1       1.081   1.695  -3.822  0.00  0.00    +0.000 A 
ATOM     21  C   UNL     1       0.371   1.495  -4.918  0.00  0.00    +0.000 A 
ATOM     22  C   UNL     1      -0.197   0.259  -5.057  0.00  0.00    +0.000 A 
ATOM     23  C   UNL     1       0.104  -0.760  -4.185  0.00  0.00    +0.000 A 
BRANCH  18  24
ATOM     24  C   UNL     1       1.252  -1.611  -2.119  0.00  0.00    +0.000 C 
BRANCH  24  25
ATOM     25  C   UNL     1       2.747  -1.559  -1.846  0.00  0.00    +0.000 C 
BRANCH  25  26
ATOM     26  C   UNL     1       3.114  -0.191  -1.295  0.00  0.00    +0.000 C 
BRANCH  26  28
ATOM     27  O   UNL     1       1.083   0.056  -0.002  0.00  0.00    +0.000 OA
ATOM     28  C   UNL     1       2.354   0.056  -0.002  0.00  0.00    +0.000 C 
BRANCH  28  29
ATOM     29  O   UNL     1       3.064   0.286   1.206  0.00  0.00    +0.000 OA
ATOM     30  H   UNL     1       4.064   0.286   1.206  0.00  0.00    +0.000 HD
ENDBRANCH  28  29
ENDBRANCH  26  28
ENDBRANCH  25  26
ENDBRANCH  24  25
ENDBRANCH  18  24
ENDBRANCH  12  21
ENDBRANCH   1  15
BRANCH   5  31
ATOM     31  O   UNL     1       0.959   7.950 -14.386  0.00  0.00    +0.000 OA
BRANCH  31  32
ATOM     32  C   UNL     1       1.651   7.082 -15.272  0.00  0.00    +0.000 C 
ATOM     33  C   UNL     1       0.927   5.968 -15.462  0.00  0.00    +0.000 C 
ATOM     34  O   UNL     1       1.282   4.976 -14.458  0.00  0.00    +0.000 OA
ATOM     35  C   UNL     1       2.699   5.335 -13.971  0.00  0.00    +0.000 C 
ATOM     36  C   UNL     1       3.692   4.354 -14.560  0.00  0.00    +0.000 C 
ATOM     37  C   UNL     1       3.996   4.798 -15.810  0.00  0.00    +0.000 C 
ATOM     38  O   UNL     1       3.925   6.250 -15.852  0.00  0.00    +0.000 OA
ATOM     39  C   UNL     1       2.994   6.676 -14.701  0.00  0.00    +0.000 C 
BRANCH  36  40
ATOM     40  O   UNL     1       3.144   3.045 -14.605  0.00  0.00    +0.000 OA
ATOM     41  H   UNL     1       2.315   3.050 -15.164  0.00  0.00    +0.000 HD
ENDBRANCH  36  40
ENDBRANCH  31  32
ENDBRANCH   5  31
TORSDOF 10
