REMARK  Name = 
REMARK  7 active torsions:
REMARK  status: ('A' for Active; 'I' for Inactive)
REMARK    1  A    between atoms: C_1  and  C_2
REMARK    2  A    between atoms: C_5  and  O_6
REMARK    3  A    between atoms: O_6  and  C_7
REMARK    4  A    between atoms: C_13  and  C_14
REMARK    5  A    between atoms: C_15  and  C_16
REMARK    6  A    between atoms: C_26  and  C_27
REMARK    7  A    between atoms: C_27  and  O_29
REMARK                            x       y       z     vdW  Elec       q    Type
REMARK                         _______ _______ _______ _____ _____    ______ ____
ROOT
ATOM      1  C   UNL     1      -3.925   1.245  -0.057  0.00  0.00    +0.000 A 
ATOM      2  N   UNL     1      -5.318   1.249  -0.086  0.00  0.00    +0.000 NA
ATOM      3  C   UNL     1      -6.050   2.524  -0.101  0.00  0.00    +0.000 A 
ATOM      4  C   UNL     1      -5.639   3.541  -0.939  0.00  0.00    +0.000 A 
ATOM      5  C   UNL     1      -6.324   4.744  -0.922  0.00  0.00    +0.000 A 
ATOM      6 CL   UNL     1      -5.778   6.064  -1.985  0.00  0.00    +0.000 Cl
ATOM      7  C   UNL     1      -7.424   4.952  -0.102  0.00  0.00    +0.000 A 
ATOM      8  C   UNL     1      -7.816   3.896   0.728  0.00  0.00    +0.000 A 
ATOM      9  C   UNL     1      -7.155   2.700   0.731  0.00  0.00    +0.000 A 
ATOM     10  N   UNL     1      -3.226   2.450  -0.042  0.00  0.00    +0.000 N 
ATOM     11  H   UNL     1      -2.206   2.447  -0.021  0.00  0.00    +0.000 HD
ENDROOT
BRANCH   7  12
ATOM     12  C   UNL     1      -8.127   6.278  -0.084  0.00  0.00    +0.000 C 
ATOM     13  C   UNL     1      -8.738   7.430  -0.069  0.00  0.00    +0.000 C 
BRANCH  13  14
ATOM     14  C   UNL     1      -9.442   8.756  -0.052  0.00  0.00    +0.000 A 
ATOM     15  C   UNL     1     -10.838   8.853  -0.079  0.00  0.00    +0.000 A 
ATOM     16  C   UNL     1     -11.475  10.061  -0.093  0.00  0.00    +0.000 A 
ATOM     17  C   UNL     1     -10.721  11.235  -0.097  0.00  0.00    +0.000 A 
ATOM     18  C   UNL     1      -9.342  11.178  -0.063  0.00  0.00    +0.000 A 
ATOM     19  C   UNL     1      -8.720   9.941  -0.051  0.00  0.00    +0.000 A 
ENDBRANCH  13  14
ENDBRANCH   7  12
BRANCH   1  20
ATOM     20  O   UNL     1      -3.219   0.014  -0.043  0.00  0.00    +0.000 OA
BRANCH  20  25
ATOM     21  C   UNL     1       2.492   0.004  -0.014  0.00  0.00    +0.000 C 
ATOM     22  C   UNL     1       0.991  -0.005   0.013  0.00  0.00    +0.000 A 
ATOM     23  C   UNL     1       0.258  -1.197   0.006  0.00  0.00    +0.000 A 
ATOM     24  C   UNL     1      -1.108  -1.202   0.001  0.00  0.00    +0.000 A 
ATOM     25  C   UNL     1      -1.799   0.010  -0.013  0.00  0.00    +0.000 A 
ATOM     26  C   UNL     1      -1.109   1.206   0.002  0.00  0.00    +0.000 A 
ATOM     27  C   UNL     1       0.275   1.184   0.005  0.00  0.00    +0.000 A 
BRANCH  27  28
ATOM     28  C   UNL     1       1.033   2.501  -0.001  0.00  0.00    +0.000 C 
ATOM     29  O   UNL     1       0.397   3.601  -0.008  0.00  0.00    +0.000 OA
BRANCH  28  30
ATOM     30  O   UNL     1       2.453   2.503   0.002  0.00  0.00    +0.000 OA
ATOM     31  H   UNL     1       2.952   3.370  -0.001  0.00  0.00    +0.000 HD
ENDBRANCH  28  30
ENDBRANCH  27  28
ENDBRANCH  20  25
ENDBRANCH   1  20
TORSDOF 6
