
 OpenBabel03132514253D

 52 55  0  0  0  0  0  0  0  0999 V2000
    0.9241    0.0429   -0.0489 C   0  0  0  0  0  0  0  0  0  0  0  0
    0.4507   -0.2482    1.2579 O   0  0  0  0  0  0  0  0  0  0  0  0
    0.7938   -1.4779    1.8796 C   0  0  0  0  0  0  0  0  0  0  0  0
   -0.1440   -2.3082    2.4276 C   0  0  0  0  0  0  0  0  0  0  0  0
    0.2235   -3.5955    2.8790 C   0  0  0  0  0  0  0  0  0  0  0  0
   -0.7299   -4.4335    3.3990 N   0  0  0  0  0  0  0  0  0  0  0  0
   -0.3193   -5.6055    3.7986 C   0  0  0  0  0  0  0  0  0  0  0  0
    0.9636   -6.0814    3.7681 N   0  0  0  0  0  0  0  0  0  0  0  0
    1.8878   -5.2856    3.2867 C   0  0  0  0  0  0  0  0  0  0  0  0
    3.2833   -5.7468    3.2587 N   0  0  0  0  0  0  0  0  0  0  0  0
    3.6260   -7.0832    3.7661 C   0  0  0  0  0  0  0  0  0  0  0  0
    4.4136   -7.2912    4.8796 C   0  0  0  0  0  0  0  0  0  0  0  0
    4.6129   -8.5675    5.3901 C   0  0  0  0  0  0  0  0  0  0  0  0
    4.0022   -9.6505    4.7600 C   0  0  0  0  0  0  0  0  0  0  0  0
    3.2128   -9.4403    3.6451 C   0  0  0  0  0  0  0  0  0  0  0  0
    2.4161  -10.7724    2.8803 Cl  0  0  0  0  0  0  0  0  0  0  0  0
    3.0378   -8.1638    3.1606 C   0  0  0  0  0  0  0  0  0  0  0  0
    2.2481   -7.9673    2.0851 F   0  0  0  0  0  0  0  0  0  0  0  0
    1.5782   -3.9874    2.7901 C   0  0  0  0  0  0  0  0  0  0  0  0
    2.5321   -3.1056    2.2330 C   0  0  0  0  0  0  0  0  0  0  0  0
    2.1403   -1.8777    1.7813 C   0  0  0  0  0  0  0  0  0  0  0  0
    3.1645   -0.9366    1.1682 C   0  0  0  0  0  0  0  0  0  0  0  0
    4.2092   -0.6373    2.1582 N   0  0  0  0  0  0  0  0  0  0  0  0
    4.8629   -1.8980    2.5543 C   0  0  0  0  0  0  0  0  0  0  0  0
    3.8472   -2.8051    3.2118 C   0  0  0  0  0  0  0  0  0  0  0  0
    3.2504   -2.1706    4.3427 O   0  0  0  0  0  0  0  0  0  0  0  0
    2.5921   -0.9708    3.9359 C   0  0  0  0  0  0  0  0  0  0  0  0
    3.5729    0.0108    3.3229 C   0  0  0  0  0  0  0  0  0  0  0  0
    4.6273    0.4053    4.3442 C   0  0  0  0  0  0  0  0  0  0  0  0
    4.7840    1.8146    4.7318 N   0  0  0  0  0  0  0  0  0  0  0  0
    5.3733   -0.4832    4.8629 O   0  0  0  0  0  0  0  0  0  0  0  0
    0.5674    1.0054   -0.3512 H   0  0  0  0  0  0  0  0  0  0  0  0
    0.5674   -0.7001   -0.7312 H   0  0  0  0  0  0  0  0  0  0  0  0
    1.9941    0.0429   -0.0489 H   0  0  0  0  0  0  0  0  0  0  0  0
   -1.1594   -1.9821    2.5147 H   0  0  0  0  0  0  0  0  0  0  0  0
   -1.0647   -6.2648    4.1921 H   0  0  0  0  0  0  0  0  0  0  0  0
    4.0138   -5.1395    2.8873 H   0  0  0  0  0  0  0  0  0  0  0  0
    4.8789   -6.4549    5.3582 H   0  0  0  0  0  0  0  0  0  0  0  0
    5.2260   -8.7170    6.2542 H   0  0  0  0  0  0  0  0  0  0  0  0
    4.1442  -10.6413    5.1381 H   0  0  0  0  0  0  0  0  0  0  0  0
    3.5588   -3.3993    2.1654 H   0  0  0  0  0  0  0  0  0  0  0  0
    3.6073   -1.4004    0.3116 H   0  0  0  0  0  0  0  0  0  0  0  0
    2.6823   -0.0283    0.8728 H   0  0  0  0  0  0  0  0  0  0  0  0
    5.6546   -1.6891    3.2431 H   0  0  0  0  0  0  0  0  0  0  0  0
    5.2638   -2.3801    1.6872 H   0  0  0  0  0  0  0  0  0  0  0  0
    3.0788   -3.0279    2.5012 H   0  0  0  0  0  0  0  0  0  0  0  0
    4.3345   -3.7027    3.5309 H   0  0  0  0  0  0  0  0  0  0  0  0
    2.1514   -0.5162    4.7985 H   0  0  0  0  0  0  0  0  0  0  0  0
    1.8415   -1.2123    3.2126 H   0  0  0  0  0  0  0  0  0  0  0  0
    3.0541    0.8920    3.0081 H   0  0  0  0  0  0  0  0  0  0  0  0
    5.4916    2.0793    5.4172 H   0  0  0  0  0  0  0  0  0  0  0  0
    4.1853    2.5277    4.3154 H   0  0  0  0  0  0  0  0  0  0  0  0
  1  2  1  0  0  0  0
  1 32  1  0  0  0  0
  1 33  1  0  0  0  0
  1 34  1  0  0  0  0
  2  3  1  0  0  0  0
  3  4  1  0  0  0  0
  3 21  2  0  0  0  0
  4  5  2  0  0  0  0
  4 35  1  0  0  0  0
  5  6  1  0  0  0  0
  5 19  1  0  0  0  0
  6  7  2  0  0  0  0
  7  8  1  0  0  0  0
  7 36  1  0  0  0  0
  8  9  2  0  0  0  0
  9 10  1  0  0  0  0
  9 19  1  0  0  0  0
 10 11  1  0  0  0  0
 10 37  1  0  0  0  0
 11 12  1  0  0  0  0
 11 17  2  0  0  0  0
 12 13  2  0  0  0  0
 12 38  1  0  0  0  0
 13 14  1  0  0  0  0
 13 39  1  0  0  0  0
 14 15  2  0  0  0  0
 14 40  1  0  0  0  0
 15 16  1  0  0  0  0
 15 17  1  0  0  0  0
 17 18  1  0  0  0  0
 19 20  2  0  0  0  0
 20 21  1  0  0  0  0
 20 41  1  0  0  0  0
 21 22  1  0  0  0  0
 22 23  1  0  0  0  0
 22 42  1  0  0  0  0
 22 43  1  0  0  0  0
 23 24  1  0  0  0  0
 23 28  1  0  0  0  0
 24 25  1  0  0  0  0
 24 44  1  0  0  0  0
 24 45  1  0  0  0  0
 25 26  1  0  0  0  0
 25 46  1  0  0  0  0
 25 47  1  0  0  0  0
 26 27  1  0  0  0  0
 27 28  1  0  0  0  0
 27 48  1  0  0  0  0
 27 49  1  0  0  0  0
 28 29  1  0  0  0  0
 28 50  1  0  0  0  0
 29 30  1  0  0  0  0
 29 31  2  0  0  0  0
 30 51  1  0  0  0  0
 30 52  1  0  0  0  0
M  END
