REMARK  Name = 
REMARK  3 active torsions:
REMARK  status: ('A' for Active; 'I' for Inactive)
REMARK    1  A    between atoms: C_2  and  O_3
REMARK    2  A    between atoms: C_2  and  C_4
REMARK    3  A    between atoms: C_11  and  C_12
REMARK                            x       y       z     vdW  Elec       q    Type
REMARK                         _______ _______ _______ _____ _____    ______ ____
ROOT
ATOM      1  C   UNL     1       2.988  -0.106  -1.236  0.00  0.00    +0.000 A 
ATOM      2  C   UNL     1       4.076  -0.897  -1.524  0.00  0.00    +0.000 A 
ATOM      3  N   UNL     1       4.471  -0.714  -2.823  0.00  0.00    +0.000 N 
ATOM      4  C   UNL     1       3.669   0.246  -3.396  0.00  0.00    +0.000 A 
ATOM      5  C   UNL     1       3.745   0.814  -4.673  0.00  0.00    +0.000 A 
ATOM      6  C   UNL     1       2.837   1.818  -4.943  0.00  0.00    +0.000 A 
ATOM      7 CL   UNL     1       2.887   2.598  -6.504  0.00  0.00    +0.000 Cl
ATOM      8  C   UNL     1       1.885   2.266  -4.011  0.00  0.00    +0.000 A 
ATOM      9  C   UNL     1       1.819   1.688  -2.754  0.00  0.00    +0.000 A 
ATOM     10  C   UNL     1       2.715   0.653  -2.429  0.00  0.00    +0.000 A 
ATOM     11  H   UNL     1       5.233  -1.208  -3.288  0.00  0.00    +0.000 HD
ENDROOT
BRANCH   8  12
ATOM     12  C   UNL     1       0.926   3.386  -4.383  0.00  0.00    +0.000 A 
ATOM     13  C   UNL     1       0.066   3.242  -5.442  0.00  0.00    +0.000 A 
ATOM     14  C   UNL     1      -0.804   4.265  -5.827  0.00  0.00    +0.000 A 
ATOM     15  C   UNL     1      -0.743   5.458  -5.112  0.00  0.00    +0.000 A 
ATOM     16  C   UNL     1       0.146   5.572  -4.035  0.00  0.00    +0.000 A 
ATOM     17  C   UNL     1       0.973   4.562  -3.626  0.00  0.00    +0.000 A 
ATOM     18  O   UNL     1       0.119   6.830  -3.456  0.00  0.00    +0.000 OA
ATOM     19  C   UNL     1      -0.581   7.703  -4.388  0.00  0.00    +0.000 C 
ATOM     20  C   UNL     1      -1.493   6.771  -5.296  0.00  0.00    +0.000 C 
ENDBRANCH   8  12
BRANCH   1  22
ATOM     21  O   UNL     1       0.957  -0.045   0.079  0.00  0.00    +0.000 OA
ATOM     22  C   UNL     1       2.228  -0.045   0.079  0.00  0.00    +0.000 C 
BRANCH  22  23
ATOM     23  O   UNL     1       2.938   0.013   1.307  0.00  0.00    +0.000 OA
ATOM     24  H   UNL     1       3.938   0.013   1.307  0.00  0.00    +0.000 HD
ENDBRANCH  22  23
ENDBRANCH   1  22
TORSDOF 3
