REMARK  Name = 
REMARK  10 active torsions:
REMARK  status: ('A' for Active; 'I' for Inactive)
REMARK    1  A    between atoms: C_1  and  C_2
REMARK    2  A    between atoms: C_2  and  C_3
REMARK    3  A    between atoms: C_2  and  O_4
REMARK    4  A    between atoms: C_2  and  C_5
REMARK    5  A    between atoms: C_8  and  C_9
REMARK    6  A    between atoms: C_13  and  O_14
REMARK    7  A    between atoms: O_14  and  C_15
REMARK    8  A    between atoms: C_18  and  C_19
REMARK    9  A    between atoms: C_19  and  O_20
REMARK   10  A    between atoms: C_21  and  O_22
REMARK                            x       y       z     vdW  Elec       q    Type
REMARK                         _______ _______ _______ _____ _____    ______ ____
ROOT
ATOM      1  C   UNL     1       2.198  -4.266  -4.675  0.00  0.00    +0.000 A 
ATOM      2  C   UNL     1       1.119  -4.664  -5.447  0.00  0.00    +0.000 A 
ATOM      3  C   UNL     1       1.473  -5.470  -6.555  0.00  0.00    +0.000 A 
ATOM      4  N   UNL     1       0.466  -6.219  -7.159  0.00  0.00    +0.000 NA
ATOM      5  C   UNL     1       0.762  -7.029  -8.253  0.00  0.00    +0.000 A 
ATOM      6  N   UNL     1       2.928  -6.109  -8.315  0.00  0.00    +0.000 N 
ATOM      7  C   UNL     1       2.691  -5.560  -7.056  0.00  0.00    +0.000 A 
ATOM      8  C   UNL     1       3.708  -5.087  -6.274  0.00  0.00    +0.000 A 
ATOM      9  C   UNL     1       3.445  -4.404  -5.111  0.00  0.00    +0.000 A 
ATOM     10 CL   UNL     1       4.788  -3.698  -4.180  0.00  0.00    +0.000 Cl
ATOM     11  H   UNL     1       3.880  -6.165  -8.675  0.00  0.00    +0.000 HD
ENDROOT
BRANCH   1  15
ATOM     12  C   UNL     1       1.053  -2.144  -1.149  0.00  0.00    +0.000 A 
ATOM     13  C   UNL     1       0.637  -3.457  -1.300  0.00  0.00    +0.000 A 
ATOM     14  C   UNL     1       1.247  -4.131  -2.385  0.00  0.00    +0.000 A 
ATOM     15  C   UNL     1       1.865  -3.532  -3.386  0.00  0.00    +0.000 A 
ATOM     16  C   UNL     1       2.189  -2.216  -3.202  0.00  0.00    +0.000 A 
ATOM     17  C   UNL     1       1.739  -1.525  -2.103  0.00  0.00    +0.000 A 
BRANCH  12  19
ATOM     18  C   UNL     1       1.053   0.009   0.084  0.00  0.00    +0.000 C 
ATOM     19  C   UNL     1       0.546  -1.424   0.089  0.00  0.00    +0.000 C 
ATOM     20  C   UNL     1       1.053  -2.136   1.333  0.00  0.00    +0.000 C 
BRANCH  19  21
ATOM     21  O   UNL     1      -0.874  -1.424   0.089  0.00  0.00    +0.000 OA
ATOM     22  H   UNL     1      -1.207  -0.950   0.904  0.00  0.00    +0.000 HD
ENDBRANCH  19  21
ENDBRANCH  12  19
ENDBRANCH   1  15
BRANCH   5  23
ATOM     23  O   UNL     1      -0.265  -7.793  -8.868  0.00  0.00    +0.000 OA
BRANCH  23  24
ATOM     24  C   UNL     1       0.037  -8.618  -9.984  0.00  0.00    +0.000 C 
ATOM     25  C   UNL     1       1.284  -9.430  -9.625  0.00  0.00    +0.000 C 
ATOM     26  O   UNL     1       0.987 -10.297  -8.528  0.00  0.00    +0.000 OA
ATOM     27  C   UNL     1      -0.044 -11.248  -8.799  0.00  0.00    +0.000 C 
ATOM     28  C   UNL     1      -1.345 -10.510  -9.125  0.00  0.00    +0.000 C 
ATOM     29  C   UNL     1      -1.109  -9.579 -10.319  0.00  0.00    +0.000 C 
BRANCH  28  30
ATOM     30  O   UNL     1      -1.757  -9.749  -8.000  0.00  0.00    +0.000 OA
ATOM     31  H   UNL     1      -1.046  -9.084  -7.768  0.00  0.00    +0.000 HD
ENDBRANCH  28  30
BRANCH  27  32
ATOM     32  C   UNL     1      -0.254 -12.130  -7.579  0.00  0.00    +0.000 C 
BRANCH  32  33
ATOM     33  O   UNL     1      -1.279 -13.075  -7.849  0.00  0.00    +0.000 OA
ATOM     34  H   UNL     1      -2.129 -12.593  -8.062  0.00  0.00    +0.000 HD
ENDBRANCH  32  33
ENDBRANCH  27  32
ENDBRANCH  23  24
ENDBRANCH   5  23
TORSDOF 8
