REMARK  Name = 
REMARK  3 active torsions:
REMARK  status: ('A' for Active; 'I' for Inactive)
REMARK    1  A    between atoms: C_1  and  C_2
REMARK    2  A    between atoms: C_7  and  N_8
REMARK    3  A    between atoms: N_12  and  C_13
REMARK                            x       y       z     vdW  Elec       q    Type
REMARK                         _______ _______ _______ _____ _____    ______ ____
ROOT
ATOM      1  N   UNL     1      -3.701  -3.665  -3.102  0.00  0.00    +0.000 N 
ATOM      2  C   UNL     1      -3.735  -5.134  -3.166  0.00  0.00    +0.000 A 
ATOM      3  N   UNL     1      -3.795  -5.886  -1.998  0.00  0.00    +0.000 NA
ATOM      4  C   UNL     1      -3.825  -7.193  -1.986  0.00  0.00    +0.000 A 
ATOM      5  N   UNL     1      -3.882  -7.892  -0.695  0.00  0.00    +0.000 N 
ATOM      6  C   UNL     1      -3.805  -7.917  -3.119  0.00  0.00    +0.000 A 
ATOM      7  O   UNL     1      -3.826  -9.267  -3.408  0.00  0.00    +0.000 OA
ATOM      8  C   UNL     1      -3.787  -9.407  -4.742  0.00  0.00    +0.000 A 
ATOM      9  C   UNL     1      -3.740  -8.146  -5.351  0.00  0.00    +0.000 A 
ATOM     10  C   UNL     1      -3.749  -7.221  -4.413  0.00  0.00    +0.000 A 
ATOM     11  N   UNL     1      -3.716  -5.758  -4.400  0.00  0.00    +0.000 NA
ATOM     12  H   UNL     1      -4.437  -3.118  -3.548  0.00  0.00    +0.000 HD
ATOM     13  H   UNL     1      -3.897  -7.358   0.174  0.00  0.00    +0.000 HD
ENDROOT
BRANCH   1  20
ATOM     14  C   UNL     1       1.014   0.086  -0.049  0.00  0.00    +0.000 C 
ATOM     15  C   UNL     1       0.507  -1.311  -0.368  0.00  0.00    +0.000 A 
ATOM     16  N   UNL     1       1.134  -2.413  -0.009  0.00  0.00    +0.000 N 
ATOM     17  N   UNL     1       0.488  -3.480  -0.455  0.00  0.00    +0.000 NA
ATOM     18  C   UNL     1      -0.591  -3.077  -1.124  0.00  0.00    +0.000 A 
ATOM     19  C   UNL     1      -1.639  -3.726  -1.809  0.00  0.00    +0.000 A 
ATOM     20  C   UNL     1      -2.606  -2.986  -2.394  0.00  0.00    +0.000 A 
ATOM     21  C   UNL     1      -2.591  -1.628  -2.345  0.00  0.00    +0.000 A 
ATOM     22  C   UNL     1      -1.615  -0.952  -1.698  0.00  0.00    +0.000 A 
ATOM     23  C   UNL     1      -0.585  -1.655  -1.070  0.00  0.00    +0.000 A 
ATOM     24  H   UNL     1       1.995  -2.440   0.537  0.00  0.00    +0.000 HD
ENDBRANCH   1  20
BRANCH   5  25
ATOM     25  C   UNL     1      -3.916  -9.361  -0.655  0.00  0.00    +0.000 C 
ATOM     26  C   UNL     1      -4.048  -9.930  -2.070  0.00  0.00    +0.000 C 
ATOM     27  C   UNL     1      -3.167 -10.640  -1.039  0.00  0.00    +0.000 C 
ENDBRANCH   5  25
TORSDOF 2
