
 OpenBabel03132514253D

 48 51  0  0  0  0  0  0  0  0999 V2000
    1.0503   -0.0443   -0.0742 C   0  0  0  0  0  0  0  0  0  0  0  0
    0.5436   -0.8664    1.0997 C   0  0  0  0  0  0  0  0  0  0  0  0
    0.1104   -2.1867    0.4837 C   0  0  0  0  0  0  0  0  0  0  0  0
   -0.7630    0.0514    1.9768 O   0  0  0  0  0  0  0  0  0  0  0  0
   -0.3888    1.5166    2.0641 C   0  0  0  0  0  0  0  0  0  0  0  0
    0.7729    1.8574    2.9689 C   0  0  0  0  0  0  0  0  0  0  0  0
    0.6577    2.4468    4.0889 O   0  0  0  0  0  0  0  0  0  0  0  0
    2.1050    1.4040    2.3682 N   0  0  0  0  0  0  0  0  0  0  0  0
    2.4179    0.0083    2.8671 C   0  0  0  0  0  0  0  0  0  0  0  0
    3.3856   -0.1497    3.8491 C   0  0  0  0  0  0  0  0  0  0  0  0
    3.6741   -1.4069    4.3379 C   0  0  0  0  0  0  0  0  0  0  0  0
    4.6912   -1.5683    5.3869 N   0  0  0  0  0  0  0  0  0  0  0  0
    5.3981   -0.3915    5.9125 C   0  0  0  0  0  0  0  0  0  0  0  0
    6.7623   -0.3344    5.7081 N   0  0  0  0  0  0  0  0  0  0  0  0
    7.4608    0.7212    6.0954 C   0  0  0  0  0  0  0  0  0  0  0  0
    8.9128    0.7434    5.8672 N   0  0  0  0  0  0  0  0  0  0  0  0
    9.5720   -0.3977    5.2160 C   0  0  0  0  0  0  0  0  0  0  0  0
   10.2487    0.0699    3.9378 C   0  0  0  0  0  0  0  0  0  0  0  0
   11.1554    0.9980    4.2301 F   0  0  0  0  0  0  0  0  0  0  0  0
   10.8451   -0.9625    3.3485 F   0  0  0  0  0  0  0  0  0  0  0  0
    9.3376    0.5836    3.1162 F   0  0  0  0  0  0  0  0  0  0  0  0
    6.8841    1.7564    6.6827 C   0  0  0  0  0  0  0  0  0  0  0  0
    7.6318    2.8114    7.0545 O   0  0  0  0  0  0  0  0  0  0  0  0
    7.0531    3.8686    7.6526 C   0  0  0  0  0  0  0  0  0  0  0  0
    4.9028    2.8984    7.5591 C   0  0  0  0  0  0  0  0  0  0  0  0
    5.5230    1.7672    6.9188 C   0  0  0  0  0  0  0  0  0  0  0  0
    4.7612    0.6745    6.5314 N   0  0  0  0  0  0  0  0  0  0  0  0
    3.0035   -2.5285    3.8403 C   0  0  0  0  0  0  0  0  0  0  0  0
    2.0316   -2.3682    2.8478 C   0  0  0  0  0  0  0  0  0  0  0  0
    1.7582   -1.0961    2.3739 C   0  0  0  0  0  0  0  0  0  0  0  0
    0.6936    0.9606    0.0138 H   0  0  0  0  0  0  0  0  0  0  0  0
    0.6936   -0.4706   -0.9885 H   0  0  0  0  0  0  0  0  0  0  0  0
    2.1203   -0.0443   -0.0742 H   0  0  0  0  0  0  0  0  0  0  0  0
   -0.6583   -2.0080   -0.2388 H   0  0  0  0  0  0  0  0  0  0  0  0
    0.9485   -2.6493    0.0057 H   0  0  0  0  0  0  0  0  0  0  0  0
   -0.2639   -2.8322    1.2506 H   0  0  0  0  0  0  0  0  0  0  0  0
   -0.0734    1.7901    1.0789 H   0  0  0  0  0  0  0  0  0  0  0  0
   -1.2454    2.0516    2.4176 H   0  0  0  0  0  0  0  0  0  0  0  0
    2.6873    1.9520    1.7350 H   0  0  0  0  0  0  0  0  0  0  0  0
    3.9082    0.7040    4.2272 H   0  0  0  0  0  0  0  0  0  0  0  0
    4.9063   -2.4968    5.7501 H   0  0  0  0  0  0  0  0  0  0  0  0
    9.4629    1.5507    6.1608 H   0  0  0  0  0  0  0  0  0  0  0  0
   10.3050   -0.8110    5.8769 H   0  0  0  0  0  0  0  0  0  0  0  0
    8.8425   -1.1443    4.9808 H   0  0  0  0  0  0  0  0  0  0  0  0
    7.6477    4.7076    7.9483 H   0  0  0  0  0  0  0  0  0  0  0  0
    3.8480    2.8996    7.7387 H   0  0  0  0  0  0  0  0  0  0  0  0
    3.2327   -3.5036    4.2167 H   0  0  0  0  0  0  0  0  0  0  0  0
    1.5067   -3.2162    2.4601 H   0  0  0  0  0  0  0  0  0  0  0  0
  1  2  1  0  0  0  0
  1 31  1  0  0  0  0
  1 32  1  0  0  0  0
  1 33  1  0  0  0  0
  2  3  1  0  0  0  0
  2  4  1  0  0  0  0
  2 30  1  0  0  0  0
  3 34  1  0  0  0  0
  3 35  1  0  0  0  0
  3 36  1  0  0  0  0
  4  5  1  0  0  0  0
  5  6  1  0  0  0  0
  5 37  1  0  0  0  0
  5 38  1  0  0  0  0
  6  7  2  0  0  0  0
  6  8  1  0  0  0  0
  8  9  1  0  0  0  0
  8 39  1  0  0  0  0
  9 10  1  0  0  0  0
  9 30  2  0  0  0  0
 10 11  2  0  0  0  0
 10 40  1  0  0  0  0
 11 12  1  0  0  0  0
 11 28  1  0  0  0  0
 12 13  1  0  0  0  0
 12 41  1  0  0  0  0
 13 14  1  0  0  0  0
 13 27  2  0  0  0  0
 14 15  2  0  0  0  0
 15 16  1  0  0  0  0
 15 22  1  0  0  0  0
 16 17  1  0  0  0  0
 16 42  1  0  0  0  0
 17 18  1  0  0  0  0
 17 43  1  0  0  0  0
 17 44  1  0  0  0  0
 18 19  1  0  0  0  0
 18 20  1  0  0  0  0
 18 21  1  0  0  0  0
 22 23  1  0  0  0  0
 22 26  2  0  0  0  0
 23 24  1  0  0  0  0
 24 25  2  0  0  0  0
 24 45  1  0  0  0  0
 25 26  1  0  0  0  0
 25 46  1  0  0  0  0
 26 27  1  0  0  0  0
 28 29  2  0  0  0  0
 28 47  1  0  0  0  0
 29 30  1  0  0  0  0
 29 48  1  0  0  0  0
M  END
