REMARK  Name = 
REMARK  2 active torsions:
REMARK  status: ('A' for Active; 'I' for Inactive)
REMARK    1  A    between atoms: C_5  and  C_6
REMARK    2  A    between atoms: C_14  and  C_15
REMARK                            x       y       z     vdW  Elec       q    Type
REMARK                         _______ _______ _______ _____ _____    ______ ____
ROOT
ATOM      1  C   UNL     1      -3.466   0.011  -0.002  0.00  0.00    +0.000 A 
ATOM      2  N   UNL     1      -4.225  -0.533   0.938  0.00  0.00    +0.000 NA
ATOM      3  N   UNL     1      -5.504  -0.339   0.619  0.00  0.00    +0.000 N 
ATOM      4  C   UNL     1      -6.741  -0.674   1.208  0.00  0.00    +0.000 A 
ATOM      5  C   UNL     1      -7.887  -0.308   0.595  0.00  0.00    +0.000 A 
ATOM      6  C   UNL     1      -7.879   0.372  -0.581  0.00  0.00    +0.000 A 
ATOM      7  C   UNL     1      -6.725   0.726  -1.190  0.00  0.00    +0.000 A 
ATOM      8  C   UNL     1      -5.503   0.379  -0.610  0.00  0.00    +0.000 A 
ATOM      9  C   UNL     1      -4.213   0.561  -0.937  0.00  0.00    +0.000 A 
ENDROOT
BRANCH   1  14
ATOM     10  F   UNL     1       2.137  -0.011  -0.002  0.00  0.00    +0.000 F 
ATOM     11  C   UNL     1       0.780  -0.001   0.005  0.00  0.00    +0.000 A 
ATOM     12  C   UNL     1       0.127  -1.186   0.005  0.00  0.00    +0.000 A 
ATOM     13  C   UNL     1      -1.259  -1.177  -0.006  0.00  0.00    +0.000 A 
ATOM     14  C   UNL     1      -1.946   0.002  -0.001  0.00  0.00    +0.000 A 
ATOM     15  C   UNL     1      -1.234   1.192   0.005  0.00  0.00    +0.000 A 
ATOM     16  C   UNL     1       0.152   1.188  -0.006  0.00  0.00    +0.000 A 
ENDBRANCH   1  14
BRANCH   9  17
ATOM     17  C   UNL     1      -3.703   1.278  -2.176  0.00  0.00    +0.000 A 
ATOM     18  C   UNL     1      -4.042   2.644  -2.388  0.00  0.00    +0.000 A 
ATOM     19  C   UNL     1      -3.986   3.174  -3.687  0.00  0.00    +0.000 A 
ATOM     20  N   UNL     1      -3.375   2.520  -4.631  0.00  0.00    +0.000 NA
ATOM     21  C   UNL     1      -2.764   1.290  -4.352  0.00  0.00    +0.000 A 
ATOM     22  C   UNL     1      -3.072   0.614  -3.146  0.00  0.00    +0.000 A 
ENDBRANCH   9  17
TORSDOF 2
