REMARK  Name = 
REMARK  11 active torsions:
REMARK  status: ('A' for Active; 'I' for Inactive)
REMARK    1  A    between atoms: C_1  and  O_2
REMARK    2  A    between atoms: O_2  and  C_3
REMARK    3  A    between atoms: C_3  and  C_4
REMARK    4  A    between atoms: C_4  and  C_5
REMARK    5  A    between atoms: C_4  and  N_8
REMARK    6  A    between atoms: N_8  and  C_9
REMARK    7  A    between atoms: N_8  and  C_10
REMARK    8  A    between atoms: C_10  and  C_11
REMARK    9  A    between atoms: N_15  and  C_16
REMARK   10  A    between atoms: C_29  and  O_30
REMARK   11  A    between atoms: O_30  and  C_31
REMARK                            x       y       z     vdW  Elec       q    Type
REMARK                         _______ _______ _______ _____ _____    ______ ____
ROOT
ATOM      1  C   UNL     1       3.025   0.270   3.563  0.00  0.00    +0.000 A 
ATOM      2  C   UNL     1       2.141  -0.765   3.674  0.00  0.00    +0.000 A 
ATOM      3  C   UNL     1       2.606  -2.098   3.599  0.00  0.00    +0.000 A 
ATOM      4  C   UNL     1       1.765  -3.242   3.705  0.00  0.00    +0.000 A 
ATOM      5  N   UNL     1       0.317  -3.051   3.870  0.00  0.00    +0.000 N 
ATOM      6  N   UNL     1       2.246  -4.461   3.659  0.00  0.00    +0.000 NA
ATOM      7  C   UNL     1       3.596  -4.596   3.481  0.00  0.00    +0.000 A 
ATOM      8  N   UNL     1       4.468  -3.636   3.347  0.00  0.00    +0.000 NA
ATOM      9  C   UNL     1       3.982  -2.354   3.408  0.00  0.00    +0.000 A 
ATOM     10  C   UNL     1       4.866  -1.261   3.269  0.00  0.00    +0.000 A 
ATOM     11  C   UNL     1       4.396   0.019   3.359  0.00  0.00    +0.000 A 
ATOM     12  H   UNL     1      -0.072  -2.109   3.908  0.00  0.00    +0.000 HD
ENDROOT
BRANCH   5  13
ATOM     13  C   UNL     1      -0.570  -4.218   3.981  0.00  0.00    +0.000 A 
ATOM     14  C   UNL     1      -1.579  -4.417   3.061  0.00  0.00    +0.000 A 
ATOM     15  C   UNL     1      -2.424  -5.516   3.148  0.00  0.00    +0.000 A 
ATOM     16  C   UNL     1      -2.243  -6.427   4.188  0.00  0.00    +0.000 A 
ATOM     17  C   UNL     1      -1.232  -6.226   5.108  0.00  0.00    +0.000 A 
ATOM     18 CL   UNL     1      -0.971  -7.373   6.378  0.00  0.00    +0.000 Cl
ATOM     19  C   UNL     1      -0.413  -5.125   4.997  0.00  0.00    +0.000 A 
ATOM     20  F   UNL     1       0.584  -4.950   5.888  0.00  0.00    +0.000 F 
ENDBRANCH   5  13
BRANCH  11  21
ATOM     21  O   UNL     1       5.299   1.109   3.246  0.00  0.00    +0.000 OA
ATOM     22  C   UNL     1       4.819   2.442   3.338  0.00  0.00    +0.000 C 
ENDBRANCH  11  21
BRANCH   1  23
ATOM     23  C   UNL     1       2.518   1.700   3.660  0.00  0.00    +0.000 C 
BRANCH  23  24
ATOM     24  N   UNL     1       1.048   1.700   3.660  0.00  0.00    +0.000 NA
ATOM     25  C   UNL     1       0.558   0.927   4.811  0.00  0.00    +0.000 C 
BRANCH  24  26
ATOM     26  C   UNL     1       0.558   1.090   2.416  0.00  0.00    +0.000 C 
BRANCH  26  27
ATOM     27  C   UNL     1       1.065  -0.340   2.318  0.00  0.00    +0.000 C 
ATOM     28  N   UNL     1       1.910  -0.894   3.386  0.00  0.00    +0.000 N 
ATOM     29  O   UNL     1       0.758  -1.056   1.314  0.00  0.00    +0.000 OA
ATOM     30  H   UNL     1       2.250  -1.854   3.321  0.00  0.00    +0.000 HD
ATOM     31  H   UNL     1       2.157  -0.319   4.191  0.00  0.00    +0.000 HD
ENDBRANCH  26  27
BRANCH  26  32
ATOM     32  C   UNL     1       1.065   1.889   1.226  0.00  0.00    +0.000 C 
BRANCH  32  34
ATOM     33  C   UNL     1       1.065  -0.036  -0.067  0.00  0.00    +0.000 C 
ATOM     34  O   UNL     1       0.592   1.300   0.024  0.00  0.00    +0.000 OA
ENDBRANCH  32  34
ENDBRANCH  26  32
ENDBRANCH  24  26
ENDBRANCH  23  24
ENDBRANCH   1  23
TORSDOF 8
