REMARK  Name = 
REMARK  12 active torsions:
REMARK  status: ('A' for Active; 'I' for Inactive)
REMARK    1  A    between atoms: C_1  and  C_2
REMARK    2  A    between atoms: C_2  and  N_3
REMARK    3  A    between atoms: N_3  and  C_4
REMARK    4  A    between atoms: N_3  and  C_6
REMARK    5  A    between atoms: C_4  and  C_5
REMARK    6  A    between atoms: C_6  and  C_7
REMARK    7  A    between atoms: C_7  and  N_8
REMARK    8  A    between atoms: C_9  and  C_11
REMARK    9  A    between atoms: C_12  and  C_13
REMARK   10  A    between atoms: C_15  and  C_16
REMARK   11  A    between atoms: C_24  and  C_25
REMARK   12  A    between atoms: C_36  and  C_37
REMARK                            x       y       z     vdW  Elec       q    Type
REMARK                         _______ _______ _______ _____ _____    ______ ____
ROOT
ATOM      1  C   UNL     1       8.382   0.421  -1.827  0.00  0.00    +0.000 C 
ATOM      2  C   UNL     1       9.371   0.446  -2.737  0.00  0.00    +0.000 C 
ATOM      3  C   UNL     1       9.155  -0.065  -4.125  0.00  0.00    +0.000 C 
ATOM      4  O   UNL     1       8.145  -0.594  -4.592  0.00  0.00    +0.000 OA
ATOM      5  N   UNL     1      10.296   0.171  -4.817  0.00  0.00    +0.000 N 
ATOM      6  C   UNL     1      11.263   0.781  -4.011  0.00  0.00    +0.000 A 
ATOM      7  C   UNL     1      12.532   1.153  -4.387  0.00  0.00    +0.000 A 
ATOM      8  C   UNL     1      13.355   1.704  -3.411  0.00  0.00    +0.000 A 
ATOM      9  C   UNL     1      12.890   1.833  -2.110  0.00  0.00    +0.000 A 
ATOM     10  C   UNL     1      11.595   1.471  -1.759  0.00  0.00    +0.000 A 
ATOM     11  C   UNL     1      10.745   0.951  -2.726  0.00  0.00    +0.000 A 
ATOM     12  H   UNL     1      10.433  -0.065  -5.800  0.00  0.00    +0.000 HD
ENDROOT
BRANCH   9  13
ATOM     13  C   UNL     1      13.821   2.383  -1.042  0.00  0.00    +0.000 A 
ATOM     14  N   UNL     1      14.297   3.613  -1.069  0.00  0.00    +0.000 NA
ATOM     15  N   UNL     1      15.019   3.767   0.088  0.00  0.00    +0.000 N 
ATOM     16  C   UNL     1      15.006   2.638   0.841  0.00  0.00    +0.000 A 
ATOM     17  C   UNL     1      15.611   2.339   2.073  0.00  0.00    +0.000 A 
ATOM     18  C   UNL     1      15.403   1.082   2.581  0.00  0.00    +0.000 A 
ATOM     19  C   UNL     1      14.613   0.154   1.873  0.00  0.00    +0.000 A 
ATOM     20  C   UNL     1      14.011   0.421   0.663  0.00  0.00    +0.000 A 
ATOM     21  C   UNL     1      14.223   1.699   0.139  0.00  0.00    +0.000 A 
ATOM     22  H   UNL     1      15.506   4.624   0.349  0.00  0.00    +0.000 HD
ENDBRANCH   9  13
BRANCH   1  27
ATOM     23  C   UNL     1       4.846  -0.512  -2.602  0.00  0.00    +0.000 A 
ATOM     24  C   UNL     1       5.500  -1.693  -2.852  0.00  0.00    +0.000 A 
ATOM     25  C   UNL     1       4.995  -3.009  -3.333  0.00  0.00    +0.000 C 
ATOM     26  N   UNL     1       6.823  -1.490  -2.589  0.00  0.00    +0.000 N 
ATOM     27  C   UNL     1       7.041  -0.192  -2.195  0.00  0.00    +0.000 A 
ATOM     28  C   UNL     1       5.827   0.450  -2.194  0.00  0.00    +0.000 A 
ATOM     29  C   UNL     1       5.556   1.879  -1.796  0.00  0.00    +0.000 C 
ATOM     30  H   UNL     1       7.548  -2.202  -2.674  0.00  0.00    +0.000 HD
BRANCH  23  32
ATOM     31  N   UNL     1       2.397  -1.250  -2.201  0.00  0.00    +0.000 N 
ATOM     32  C   UNL     1       3.352  -0.268  -2.735  0.00  0.00    +0.000 C 
ATOM     33  O   UNL     1       2.928   0.785  -3.307  0.00  0.00    +0.000 OA
ATOM     34  H   UNL     1       1.394  -1.086  -2.290  0.00  0.00    +0.000 HD
BRANCH  31  35
ATOM     35  C   UNL     1       2.887  -2.467  -1.540  0.00  0.00    +0.000 C 
BRANCH  35  36
ATOM     36  C   UNL     1       2.380  -2.505  -0.107  0.00  0.00    +0.000 C 
BRANCH  36  37
ATOM     37  N   UNL     1       0.910  -2.505  -0.107  0.00  0.00    +0.000 NA
BRANCH  37  39
ATOM     38  C   UNL     1       0.927  -0.065  -0.020  0.00  0.00    +0.000 C 
ATOM     39  C   UNL     1       0.420  -1.287  -0.769  0.00  0.00    +0.000 C 
ENDBRANCH  37  39
BRANCH  37  40
ATOM     40  C   UNL     1       0.420  -3.687  -0.831  0.00  0.00    +0.000 C 
ATOM     41  C   UNL     1       0.926  -3.649  -2.264  0.00  0.00    +0.000 C 
ENDBRANCH  37  40
ENDBRANCH  36  37
ENDBRANCH  35  36
ENDBRANCH  31  35
ENDBRANCH  23  32
ENDBRANCH   1  27
TORSDOF 8
