REMARK  Name = 
REMARK  6 active torsions:
REMARK  status: ('A' for Active; 'I' for Inactive)
REMARK    1  A    between atoms: C_2  and  O_3
REMARK    2  A    between atoms: C_2  and  C_4
REMARK    3  A    between atoms: C_11  and  C_12
REMARK    4  A    between atoms: C_15  and  O_16
REMARK    5  A    between atoms: O_16  and  C_17
REMARK    6  A    between atoms: C_17  and  C_18
REMARK                            x       y       z     vdW  Elec       q    Type
REMARK                         _______ _______ _______ _____ _____    ______ ____
ROOT
ATOM      1  C   UNL     1       3.089   0.962   0.890  0.00  0.00    +0.000 A 
ATOM      2  C   UNL     1       4.069   1.778   0.373  0.00  0.00    +0.000 A 
ATOM      3  N   UNL     1       4.452   2.712   1.298  0.00  0.00    +0.000 N 
ATOM      4  C   UNL     1       3.757   2.489   2.464  0.00  0.00    +0.000 A 
ATOM      5  C   UNL     1       3.869   3.138   3.698  0.00  0.00    +0.000 A 
ATOM      6  C   UNL     1       3.080   2.642   4.717  0.00  0.00    +0.000 A 
ATOM      7 CL   UNL     1       3.186   3.379   6.296  0.00  0.00    +0.000 Cl
ATOM      8  C   UNL     1       2.210   1.550   4.554  0.00  0.00    +0.000 A 
ATOM      9  C   UNL     1       2.105   0.923   3.323  0.00  0.00    +0.000 A 
ATOM     10  C   UNL     1       2.880   1.395   2.248  0.00  0.00    +0.000 A 
ATOM     11  H   UNL     1       5.139   3.451   1.147  0.00  0.00    +0.000 HD
ENDROOT
BRANCH   8  12
ATOM     12  C   UNL     1       1.383   1.057   5.730  0.00  0.00    +0.000 A 
ATOM     13  C   UNL     1       1.472  -0.262   6.144  0.00  0.00    +0.000 A 
ATOM     14  C   UNL     1       0.405  -0.675   6.976  0.00  0.00    +0.000 A 
ATOM     15  C   UNL     1      -0.408   0.146   7.615  0.00  0.00    +0.000 A 
ATOM     16  C   UNL     1      -0.400   1.450   7.205  0.00  0.00    +0.000 A 
ATOM     17  C   UNL     1       0.528   1.900   6.297  0.00  0.00    +0.000 A 
BRANCH  15  18
ATOM     18  O   UNL     1      -1.245  -0.302   8.671  0.00  0.00    +0.000 OA
BRANCH  18  19
ATOM     19  C   UNL     1      -2.105   0.615   9.332  0.00  0.00    +0.000 C 
BRANCH  19  20
ATOM     20  C   UNL     1      -1.276   1.721   9.964  0.00  0.00    +0.000 C 
ATOM     21  C   UNL     1      -1.421   1.728  11.461  0.00  0.00    +0.000 C 
ATOM     22  C   UNL     1      -0.910   3.146  11.856  0.00  0.00    +0.000 C 
ATOM     23  C   UNL     1      -1.354   4.020  10.680  0.00  0.00    +0.000 C 
ATOM     24  N   UNL     1      -1.792   3.054   9.602  0.00  0.00    +0.000 NA
ATOM     25  H   UNL     1      -2.810   3.031   9.549  0.00  0.00    +0.000 HD
ENDBRANCH  19  20
ENDBRANCH  18  19
ENDBRANCH  15  18
ENDBRANCH   8  12
BRANCH   1  27
ATOM     26  O   UNL     1       1.058  -0.058   0.058  0.00  0.00    +0.000 OA
ATOM     27  C   UNL     1       2.329  -0.058   0.058  0.00  0.00    +0.000 C 
BRANCH  27  28
ATOM     28  O   UNL     1       3.039  -1.010  -0.720  0.00  0.00    +0.000 OA
ATOM     29  H   UNL     1       4.039  -1.010  -0.720  0.00  0.00    +0.000 HD
ENDBRANCH  27  28
ENDBRANCH   1  27
TORSDOF 6
