
 OpenBabel03132514253D

 39 42  0  0  0  0  0  0  0  0999 V2000
    1.0501   -0.0537    0.0679 O   0  0  0  0  0  0  0  0  0  0  0  0
    2.3210   -0.0537    0.0679 C   0  0  0  0  0  0  0  0  0  0  0  0
    3.0310    1.0872   -0.3913 O   0  0  0  0  0  0  0  0  0  0  0  0
    3.0810   -1.2748    0.5593 C   0  0  0  0  0  0  0  0  0  0  0  0
    4.0734   -1.3370    1.3982 N   0  0  0  0  0  0  0  0  0  0  0  0
    4.4341   -2.6694    1.6209 N   0  0  0  0  0  0  0  0  0  0  0  0
    3.6127   -3.4868    0.8716 C   0  0  0  0  0  0  0  0  0  0  0  0
    3.5215   -4.8643    0.7078 C   0  0  0  0  0  0  0  0  0  0  0  0
    2.5664   -5.3956   -0.1295 C   0  0  0  0  0  0  0  0  0  0  0  0
    2.4460   -7.1609   -0.3238 Cl  0  0  0  0  0  0  0  0  0  0  0  0
    1.6923   -4.5614   -0.8268 C   0  0  0  0  0  0  0  0  0  0  0  0
    0.6523   -5.1639   -1.7573 C   0  0  0  0  0  0  0  0  0  0  0  0
   -0.3199   -6.0605   -1.2327 C   0  0  0  0  0  0  0  0  0  0  0  0
   -1.0367   -6.8902   -2.1104 C   0  0  0  0  0  0  0  0  0  0  0  0
   -1.0170   -6.6556   -3.3895 C   0  0  0  0  0  0  0  0  0  0  0  0
   -1.7838   -7.5613   -4.3393 C   0  0  0  0  0  0  0  0  0  0  0  0
   -0.8037   -8.1945   -5.3344 C   0  0  0  0  0  0  0  0  0  0  0  0
   -1.7814   -7.7930   -6.4970 C   0  0  0  0  0  0  0  0  0  0  0  0
   -2.6192   -8.9078   -6.7105 O   0  0  0  0  0  0  0  0  0  0  0  0
   -2.4103   -6.7901   -5.5138 C   0  0  0  0  0  0  0  0  0  0  0  0
   -0.2897   -5.5689   -3.8932 C   0  0  0  0  0  0  0  0  0  0  0  0
    0.6642   -4.9232   -3.0694 C   0  0  0  0  0  0  0  0  0  0  0  0
    1.7675   -3.1911   -0.6757 C   0  0  0  0  0  0  0  0  0  0  0  0
    2.7305   -2.6415    0.1760 C   0  0  0  0  0  0  0  0  0  0  0  0
    4.0310    1.0872   -0.3913 H   0  0  0  0  0  0  0  0  0  0  0  0
    5.1828   -2.9857    2.2372 H   0  0  0  0  0  0  0  0  0  0  0  0
    4.1933   -5.5113    1.2322 H   0  0  0  0  0  0  0  0  0  0  0  0
   -0.5033   -6.1023   -0.1794 H   0  0  0  0  0  0  0  0  0  0  0  0
   -1.5991   -7.7156   -1.7267 H   0  0  0  0  0  0  0  0  0  0  0  0
   -2.4008   -8.1347   -3.6794 H   0  0  0  0  0  0  0  0  0  0  0  0
   -0.4709   -9.2045   -5.2160 H   0  0  0  0  0  0  0  0  0  0  0  0
    0.1529   -7.7171   -5.3769 H   0  0  0  0  0  0  0  0  0  0  0  0
   -1.4787   -7.4793   -7.4742 H   0  0  0  0  0  0  0  0  0  0  0  0
   -2.9419   -9.2558   -5.8303 H   0  0  0  0  0  0  0  0  0  0  0  0
   -2.2422   -5.7394   -5.6263 H   0  0  0  0  0  0  0  0  0  0  0  0
   -3.4803   -6.7877   -5.5152 H   0  0  0  0  0  0  0  0  0  0  0  0
   -0.4542   -5.2290   -4.8944 H   0  0  0  0  0  0  0  0  0  0  0  0
    1.3829   -4.2529   -3.4926 H   0  0  0  0  0  0  0  0  0  0  0  0
    1.0926   -2.5533   -1.2074 H   0  0  0  0  0  0  0  0  0  0  0  0
  1  2  2  0  0  0  0
  2  3  1  0  0  0  0
  2  4  1  0  0  0  0
  3 25  1  0  0  0  0
  4  5  2  0  0  0  0
  4 24  1  0  0  0  0
  5  6  1  0  0  0  0
  6  7  1  0  0  0  0
  6 26  1  0  0  0  0
  7  8  1  0  0  0  0
  7 24  2  0  0  0  0
  8  9  2  0  0  0  0
  8 27  1  0  0  0  0
  9 10  1  0  0  0  0
  9 11  1  0  0  0  0
 11 12  1  0  0  0  0
 11 23  2  0  0  0  0
 12 13  1  0  0  0  0
 12 22  2  0  0  0  0
 13 14  2  0  0  0  0
 13 28  1  0  0  0  0
 14 15  1  0  0  0  0
 14 29  1  0  0  0  0
 15 16  1  0  0  0  0
 15 21  2  0  0  0  0
 16 17  1  0  0  0  0
 16 20  1  0  0  0  0
 16 30  1  0  0  0  0
 17 18  1  0  0  0  0
 17 31  1  0  0  0  0
 17 32  1  0  0  0  0
 18 19  1  0  0  0  0
 18 20  1  0  0  0  0
 18 33  1  0  0  0  0
 19 34  1  0  0  0  0
 20 35  1  0  0  0  0
 20 36  1  0  0  0  0
 21 22  1  0  0  0  0
 21 37  1  0  0  0  0
 22 38  1  0  0  0  0
 23 24  1  0  0  0  0
 23 39  1  0  0  0  0
M  END
