
 OpenBabel03132514253D

 65 69  0  0  0  0  0  0  0  0999 V2000
    0.9579    0.0890   -0.0176 C   0  0  0  0  0  0  0  0  0  0  0  0
    0.4512    0.3561   -1.4255 C   0  0  0  0  0  0  0  0  0  0  0  0
    0.9579   -0.7297   -2.3608 C   0  0  0  0  0  0  0  0  0  0  0  0
    0.4512   -2.0826   -1.8881 C   0  0  0  0  0  0  0  0  0  0  0  0
   -1.0188   -2.0826   -1.8881 N   0  0  0  0  0  0  0  0  0  0  0  0
   -1.7538   -3.0472   -2.7190 C   0  0  0  0  0  0  0  0  0  0  0  0
   -3.0247   -3.0472   -2.7190 O   0  0  0  0  0  0  0  0  0  0  0  0
   -0.9938   -4.0445   -3.5781 C   0  0  0  0  0  0  0  0  0  0  0  0
    0.0536   -4.6702   -2.9715 C   0  0  0  0  0  0  0  0  0  0  0  0
    0.7064   -5.6473   -3.6155 C   0  0  0  0  0  0  0  0  0  0  0  0
    0.3466   -6.0433   -4.8746 C   0  0  0  0  0  0  0  0  0  0  0  0
    1.0850   -7.0659   -5.4742 N   0  0  0  0  0  0  0  0  0  0  0  0
    0.7882   -7.5034   -6.7190 C   0  0  0  0  0  0  0  0  0  0  0  0
    1.5841   -8.5854   -7.3163 N   0  0  0  0  0  0  0  0  0  0  0  0
    1.2700   -9.0685   -8.6686 C   0  0  0  0  0  0  0  0  0  0  0  0
    1.4128   -7.9030   -9.6362 C   0  0  0  0  0  0  0  0  0  0  0  0
    0.4048   -6.7906   -9.3504 C   0  0  0  0  0  0  0  0  0  0  0  0
   -1.0026   -7.3859   -9.4102 C   0  0  0  0  0  0  0  0  0  0  0  0
   -2.0266   -6.4452   -9.0752 O   0  0  0  0  0  0  0  0  0  0  0  0
   -1.1491   -8.5282   -8.4316 C   0  0  0  0  0  0  0  0  0  0  0  0
   -0.1350   -9.6342   -8.6744 C   0  0  0  0  0  0  0  0  0  0  0  0
   -0.2676   -6.9395   -7.4469 C   0  0  0  0  0  0  0  0  0  0  0  0
   -0.6949   -7.2503   -8.6799 N   0  0  0  0  0  0  0  0  0  0  0  0
   -1.7072   -6.4865   -8.9939 C   0  0  0  0  0  0  0  0  0  0  0  0
   -1.9821   -5.6208   -7.9333 C   0  0  0  0  0  0  0  0  0  0  0  0
   -1.0699   -5.8855   -6.9142 N   0  0  0  0  0  0  0  0  0  0  0  0
   -0.7390   -5.4171   -5.5603 C   0  0  0  0  0  0  0  0  0  0  0  0
   -1.4015   -4.4056   -4.8670 C   0  0  0  0  0  0  0  0  0  0  0  0
    0.9579   -3.1684   -2.8234 C   0  0  0  0  0  0  0  0  0  0  0  0
    1.4471   -2.8838   -4.1287 C   0  0  0  0  0  0  0  0  0  0  0  0
    1.4477   -3.8978   -5.1005 C   0  0  0  0  0  0  0  0  0  0  0  0
    1.2672   -5.1368   -4.7483 C   0  0  0  0  0  0  0  0  0  0  0  0
    1.0826   -5.4635   -3.3983 C   0  0  0  0  0  0  0  0  0  0  0  0
    0.7798   -4.4414   -2.4661 C   0  0  0  0  0  0  0  0  0  0  0  0
    0.6012   -0.8634    0.3152 H   0  0  0  0  0  0  0  0  0  0  0  0
    0.6012    0.8533    0.6408 H   0  0  0  0  0  0  0  0  0  0  0  0
    2.0279    0.0890   -0.0176 H   0  0  0  0  0  0  0  0  0  0  0  0
   -0.6188    0.3561   -1.4255 H   0  0  0  0  0  0  0  0  0  0  0  0
    0.8079    1.3084   -1.7583 H   0  0  0  0  0  0  0  0  0  0  0  0
    0.6012   -0.5417   -3.3519 H   0  0  0  0  0  0  0  0  0  0  0  0
    2.0279   -0.7297   -2.3608 H   0  0  0  0  0  0  0  0  0  0  0  0
    0.8079   -2.2706   -0.8970 H   0  0  0  0  0  0  0  0  0  0  0  0
   -1.5288   -1.4133   -1.3116 H   0  0  0  0  0  0  0  0  0  0  0  0
    0.3534   -4.3827   -1.9855 H   0  0  0  0  0  0  0  0  0  0  0  0
    1.5302   -6.1301   -3.1326 H   0  0  0  0  0  0  0  0  0  0  0  0
    2.3543   -9.0009   -6.7924 H   0  0  0  0  0  0  0  0  0  0  0  0
    1.9391   -9.8468   -8.9710 H   0  0  0  0  0  0  0  0  0  0  0  0
    1.2263   -8.2703  -10.6237 H   0  0  0  0  0  0  0  0  0  0  0  0
    2.4015   -7.5028   -9.5505 H   0  0  0  0  0  0  0  0  0  0  0  0
    0.5044   -6.0098  -10.0752 H   0  0  0  0  0  0  0  0  0  0  0  0
    0.5834   -6.3826   -8.3775 H   0  0  0  0  0  0  0  0  0  0  0  0
   -1.1209   -7.7064  -10.4242 H   0  0  0  0  0  0  0  0  0  0  0  0
   -1.9106   -6.1497   -8.1269 H   0  0  0  0  0  0  0  0  0  0  0  0
   -0.9784   -8.1396   -7.4493 H   0  0  0  0  0  0  0  0  0  0  0  0
   -2.1331   -8.9376   -8.5263 H   0  0  0  0  0  0  0  0  0  0  0  0
   -0.3272  -10.0800   -9.6280 H   0  0  0  0  0  0  0  0  0  0  0  0
   -0.2227  -10.3696   -7.9021 H   0  0  0  0  0  0  0  0  0  0  0  0
   -2.2424   -6.5192   -9.9198 H   0  0  0  0  0  0  0  0  0  0  0  0
   -2.7572   -4.8836   -7.9078 H   0  0  0  0  0  0  0  0  0  0  0  0
   -2.2277   -3.9018   -5.3235 H   0  0  0  0  0  0  0  0  0  0  0  0
    1.8112   -1.9065   -4.3678 H   0  0  0  0  0  0  0  0  0  0  0  0
    1.5967   -3.6510   -6.1309 H   0  0  0  0  0  0  0  0  0  0  0  0
    1.2598   -5.9075   -5.4904 H   0  0  0  0  0  0  0  0  0  0  0  0
    1.1699   -6.4793   -3.0736 H   0  0  0  0  0  0  0  0  0  0  0  0
    0.4140   -4.6861   -1.4908 H   0  0  0  0  0  0  0  0  0  0  0  0
  1  2  1  0  0  0  0
  1 35  1  0  0  0  0
  1 36  1  0  0  0  0
  1 37  1  0  0  0  0
  2  3  1  0  0  0  0
  2 38  1  0  0  0  0
  2 39  1  0  0  0  0
  3  4  1  0  0  0  0
  3 40  1  0  0  0  0
  3 41  1  0  0  0  0
  4  5  1  0  0  0  0
  4 29  1  0  0  0  0
  4 42  1  0  0  0  0
  5  6  1  0  0  0  0
  5 43  1  0  0  0  0
  6  7  2  0  0  0  0
  6  8  1  0  0  0  0
  8  9  1  0  0  0  0
  8 28  2  0  0  0  0
  9 10  2  0  0  0  0
  9 44  1  0  0  0  0
 10 11  1  0  0  0  0
 10 45  1  0  0  0  0
 11 12  1  0  0  0  0
 11 27  2  0  0  0  0
 12 13  2  0  0  0  0
 13 14  1  0  0  0  0
 13 22  1  0  0  0  0
 14 15  1  0  0  0  0
 14 46  1  0  0  0  0
 15 16  1  0  0  0  0
 15 21  1  0  0  0  0
 15 47  1  0  0  0  0
 16 17  1  0  0  0  0
 16 48  1  0  0  0  0
 16 49  1  0  0  0  0
 17 18  1  0  0  0  0
 17 50  1  0  0  0  0
 17 51  1  0  0  0  0
 18 19  1  0  0  0  0
 18 20  1  0  0  0  0
 18 52  1  0  0  0  0
 19 53  1  0  0  0  0
 20 21  1  0  0  0  0
 20 54  1  0  0  0  0
 20 55  1  0  0  0  0
 21 56  1  0  0  0  0
 21 57  1  0  0  0  0
 22 23  2  0  0  0  0
 22 26  1  0  0  0  0
 23 24  1  0  0  0  0
 24 25  2  0  0  0  0
 24 58  1  0  0  0  0
 25 26  1  0  0  0  0
 25 59  1  0  0  0  0
 26 27  1  0  0  0  0
 27 28  1  0  0  0  0
 28 60  1  0  0  0  0
 29 30  1  0  0  0  0
 29 34  2  0  0  0  0
 30 31  2  0  0  0  0
 30 61  1  0  0  0  0
 31 32  1  0  0  0  0
 31 62  1  0  0  0  0
 32 33  2  0  0  0  0
 32 63  1  0  0  0  0
 33 34  1  0  0  0  0
 33 64  1  0  0  0  0
 34 65  1  0  0  0  0
M  END
