REMARK  Name = 
REMARK  3 active torsions:
REMARK  status: ('A' for Active; 'I' for Inactive)
REMARK    1  A    between atoms: C_1  and  C_2
REMARK    2  A    between atoms: C_5  and  C_6
REMARK    3  A    between atoms: C_21  and  C_22
REMARK                            x       y       z     vdW  Elec       q    Type
REMARK                         _______ _______ _______ _____ _____    ______ ____
ROOT
ATOM      1  C   UNL     1      -2.351  -4.520   3.191  0.00  0.00    +0.000 C 
ATOM      2  C   UNL     1      -2.966  -3.392   3.640  0.00  0.00    +0.000 C 
ATOM      3  C   UNL     1      -2.516  -2.030   3.139  0.00  0.00    +0.000 C 
ATOM      4  O   UNL     1      -1.565  -1.944   2.301  0.00  0.00    +0.000 OA
ATOM      5  N   UNL     1      -3.181  -0.812   3.624  0.00  0.00    +0.000 N 
ATOM      6  C   UNL     1      -4.282  -0.912   4.594  0.00  0.00    +0.000 A 
ATOM      7  C   UNL     1      -4.188  -1.714   5.649  0.00  0.00    +0.000 A 
ATOM      8  C   UNL     1      -5.167  -1.815   6.525  0.00  0.00    +0.000 A 
ATOM      9  C   UNL     1      -6.291  -1.129   6.408  0.00  0.00    +0.000 A 
ATOM     10  C   UNL     1      -6.465  -0.308   5.390  0.00  0.00    +0.000 A 
ATOM     11  C   UNL     1      -7.623   0.442   5.218  0.00  0.00    +0.000 A 
ATOM     12  C   UNL     1      -7.486   1.596   4.408  0.00  0.00    +0.000 A 
ATOM     13  C   UNL     1      -6.609   1.528   3.350  0.00  0.00    +0.000 A 
ATOM     14  C   UNL     1      -5.625   0.675   3.366  0.00  0.00    +0.000 A 
ATOM     15  C   UNL     1      -5.446  -0.171   4.426  0.00  0.00    +0.000 A 
ATOM     16  H   UNL     1      -2.879   0.103   3.288  0.00  0.00    +0.000 HD
ENDROOT
BRANCH   1  21
ATOM     17  C   UNL     1       1.076  -0.016  -0.063  0.00  0.00    +0.000 C 
ATOM     18  C   UNL     1       0.569  -1.376   0.389  0.00  0.00    +0.000 A 
ATOM     19  C   UNL     1      -0.420  -1.654   1.284  0.00  0.00    +0.000 A 
ATOM     20  N   UNL     1      -0.466  -3.002   1.424  0.00  0.00    +0.000 N 
ATOM     21  C   UNL     1      -1.213  -4.416   2.188  0.00  0.00    +0.000 A 
ATOM     22  C   UNL     1      -0.218  -5.681   1.418  0.00  0.00    +0.000 A 
ATOM     23  C   UNL     1      -0.289  -7.189   1.600  0.00  0.00    +0.000 C 
ATOM     24  N   UNL     1       0.622  -4.956   0.626  0.00  0.00    +0.000 NA
ATOM     25  C   UNL     1       0.520  -3.558   0.605  0.00  0.00    +0.000 A 
ATOM     26  S   UNL     1       1.122  -2.481  -0.008  0.00  0.00    +0.000 S 
ENDBRANCH   1  21
TORSDOF 1
