REMARK  Name = 
REMARK  6 active torsions:
REMARK  status: ('A' for Active; 'I' for Inactive)
REMARK    1  A    between atoms: C_1  and  C_2
REMARK    2  A    between atoms: C_4  and  C_5
REMARK    3  A    between atoms: C_12  and  C_13
REMARK    4  A    between atoms: C_16  and  C_17
REMARK    5  A    between atoms: C_27  and  C_28
REMARK    6  A    between atoms: C_29  and  C_30
REMARK                            x       y       z     vdW  Elec       q    Type
REMARK                         _______ _______ _______ _____ _____    ______ ____
ROOT
ATOM      1  C   UNL     1      -1.507  -2.438   0.021  0.00  0.00    +0.000 C 
ATOM      2  C   UNL     1      -1.374  -3.317   1.029  0.00  0.00    +0.000 C 
ATOM      3  C   UNL     1      -0.468  -3.037   2.184  0.00  0.00    +0.000 C 
ATOM      4  O   UNL     1       0.274  -2.068   2.350  0.00  0.00    +0.000 OA
ATOM      5  N   UNL     1      -0.615  -4.060   3.062  0.00  0.00    +0.000 N 
ATOM      6  C   UNL     1      -1.528  -5.009   2.588  0.00  0.00    +0.000 A 
ATOM      7  C   UNL     1      -1.906  -6.171   3.219  0.00  0.00    +0.000 A 
ATOM      8  C   UNL     1      -2.797  -7.003   2.549  0.00  0.00    +0.000 A 
ATOM      9  C   UNL     1      -3.242  -6.657   1.280  0.00  0.00    +0.000 A 
ATOM     10  C   UNL     1      -2.863  -5.466   0.674  0.00  0.00    +0.000 A 
ATOM     11  C   UNL     1      -2.002  -4.603   1.340  0.00  0.00    +0.000 A 
ATOM     12  H   UNL     1      -0.123  -4.129   3.953  0.00  0.00    +0.000 HD
ENDROOT
BRANCH   1  16
ATOM     13  C   UNL     1       2.549   0.571   0.010  0.00  0.00    +0.000 C 
ATOM     14  C   UNL     1       1.104   0.209  -0.007  0.00  0.00    +0.000 A 
ATOM     15  N   UNL     1       0.696  -1.092  -0.011  0.00  0.00    +0.000 N 
ATOM     16  C   UNL     1      -0.676  -1.165   0.008  0.00  0.00    +0.000 A 
ATOM     17  C   UNL     1      -1.160   0.120   0.013  0.00  0.00    +0.000 A 
ATOM     18  C   UNL     1      -2.606   0.547  -0.004  0.00  0.00    +0.000 C 
ATOM     19  C   UNL     1      -0.023   0.993  -0.008  0.00  0.00    +0.000 A 
ATOM     20  H   UNL     1       1.321  -1.898  -0.026  0.00  0.00    +0.000 HD
BRANCH  19  21
ATOM     21  C   UNL     1      -0.059   2.512  -0.028  0.00  0.00    +0.000 C 
ATOM     22  O   UNL     1      -1.174   3.122  -0.027  0.00  0.00    +0.000 OA
ATOM     23  N   UNL     1       1.196   3.277  -0.048  0.00  0.00    +0.000 N 
ATOM     24  C   UNL     1       2.287   3.269  -1.040  0.00  0.00    +0.000 C 
ATOM     25  C   UNL     1       3.599   2.988  -0.342  0.00  0.00    +0.000 C 
ATOM     26  O   UNL     1       3.853   3.954   0.678  0.00  0.00    +0.000 OA
ATOM     27  C   UNL     1       2.806   3.924   1.648  0.00  0.00    +0.000 C 
ATOM     28  C   UNL     1       1.467   4.261   1.019  0.00  0.00    +0.000 C 
ENDBRANCH  19  21
ENDBRANCH   1  16
BRANCH   8  29
ATOM     29  C   UNL     1      -3.281  -8.286   3.203  0.00  0.00    +0.000 A 
ATOM     30  C   UNL     1      -3.852  -8.413   4.442  0.00  0.00    +0.000 A 
ATOM     31  S   UNL     1      -4.099 -10.096   4.831  0.00  0.00    +0.000 S 
ATOM     32  C   UNL     1      -3.411 -10.514   3.300  0.00  0.00    +0.000 A 
ATOM     33  N   UNL     1      -3.027  -9.498   2.582  0.00  0.00    +0.000 NA
BRANCH  32  34
ATOM     34  C   UNL     1      -3.267 -11.953   2.830  0.00  0.00    +0.000 A 
ATOM     35  C   UNL     1      -4.436 -12.681   2.688  0.00  0.00    +0.000 A 
ATOM     36  C   UNL     1      -4.229 -14.069   2.507  0.00  0.00    +0.000 A 
ATOM     37  C   UNL     1      -3.083 -14.614   2.141  0.00  0.00    +0.000 A 
ATOM     38  C   UNL     1      -1.974 -13.821   2.240  0.00  0.00    +0.000 A 
ATOM     39  C   UNL     1      -2.085 -12.485   2.541  0.00  0.00    +0.000 A 
ENDBRANCH  32  34
ENDBRANCH   8  29
TORSDOF 4
