REMARK  Name = 
REMARK  7 active torsions:
REMARK  status: ('A' for Active; 'I' for Inactive)
REMARK    1  A    between atoms: O_1  and  C_2
REMARK    2  A    between atoms: C_2  and  C_3
REMARK    3  A    between atoms: C_6  and  C_7
REMARK    4  A    between atoms: C_10  and  C_11
REMARK    5  A    between atoms: C_15  and  O_16
REMARK    6  A    between atoms: O_16  and  C_17
REMARK    7  A    between atoms: C_21  and  O_22
REMARK                            x       y       z     vdW  Elec       q    Type
REMARK                         _______ _______ _______ _____ _____    ______ ____
ROOT
ATOM      1  C   UNL     1       3.091  -1.130  10.322  0.00  0.00    +0.000 A 
ATOM      2  N   UNL     1       4.362  -0.808  10.755  0.00  0.00    +0.000 NA
ATOM      3  C   UNL     1       4.718  -1.041  12.087  0.00  0.00    +0.000 A 
ATOM      4  N   UNL     1       5.940  -0.828  12.861  0.00  0.00    +0.000 NA
ATOM      5  C   UNL     1       5.717  -1.228  14.078  0.00  0.00    +0.000 A 
ATOM      6  N   UNL     1       4.410  -1.708  14.197  0.00  0.00    +0.000 N 
ATOM      7  C   UNL     1       3.780  -1.599  12.973  0.00  0.00    +0.000 A 
ATOM      8  C   UNL     1       2.505  -1.916  12.519  0.00  0.00    +0.000 A 
ATOM      9  C   UNL     1       2.163  -1.678  11.207  0.00  0.00    +0.000 A 
ATOM     10 CL   UNL     1       0.524  -2.073  10.636  0.00  0.00    +0.000 Cl
ATOM     11  H   UNL     1       3.989  -2.079  15.049  0.00  0.00    +0.000 HD
ENDROOT
BRANCH   1  15
ATOM     12  C   UNL     1       2.057  -0.089   6.310  0.00  0.00    +0.000 A 
ATOM     13  C   UNL     1       3.136  -0.932   6.521  0.00  0.00    +0.000 A 
ATOM     14  C   UNL     1       3.256  -1.386   7.856  0.00  0.00    +0.000 A 
ATOM     15  C   UNL     1       2.667  -0.822   8.895  0.00  0.00    +0.000 A 
ATOM     16  C   UNL     1       1.653   0.053   8.618  0.00  0.00    +0.000 A 
ATOM     17  C   UNL     1       1.390   0.444   7.327  0.00  0.00    +0.000 A 
BRANCH  12  21
ATOM     18  C   UNL     1       0.988   0.651   2.242  0.00  0.00    +0.000 A 
ATOM     19  C   UNL     1       1.092  -0.661   2.674  0.00  0.00    +0.000 A 
ATOM     20  C   UNL     1       1.233  -0.793   4.075  0.00  0.00    +0.000 A 
ATOM     21  C   UNL     1       1.596   0.182   4.888  0.00  0.00    +0.000 A 
ATOM     22  C   UNL     1       1.536   1.450   4.380  0.00  0.00    +0.000 A 
ATOM     23  C   UNL     1       1.275   1.667   3.048  0.00  0.00    +0.000 A 
BRANCH  18  24
ATOM     24  C   UNL     1       0.481   0.931   0.837  0.00  0.00    +0.000 C 
BRANCH  24  25
ATOM     25  O   UNL     1       0.954  -0.076  -0.046  0.00  0.00    +0.000 OA
ATOM     26  H   UNL     1       1.954  -0.076  -0.046  0.00  0.00    +0.000 HD
ENDBRANCH  24  25
ENDBRANCH  18  24
ENDBRANCH  12  21
ENDBRANCH   1  15
BRANCH   5  27
ATOM     27  O   UNL     1       6.665  -1.184  15.134  0.00  0.00    +0.000 OA
BRANCH  27  28
ATOM     28  C   UNL     1       7.969  -0.673  14.897  0.00  0.00    +0.000 C 
ATOM     29  C   UNL     1       7.903   0.603  14.484  0.00  0.00    +0.000 C 
ATOM     30  O   UNL     1       7.890   0.646  13.030  0.00  0.00    +0.000 OA
ATOM     31  C   UNL     1       8.537  -0.666  12.547  0.00  0.00    +0.000 C 
ATOM     32  C   UNL     1       9.934  -0.376  12.039  0.00  0.00    +0.000 C 
ATOM     33  C   UNL     1      10.756  -0.356  13.124  0.00  0.00    +0.000 C 
ATOM     34  O   UNL     1      10.263  -1.277  14.137  0.00  0.00    +0.000 OA
ATOM     35  C   UNL     1       8.757  -1.458  13.867  0.00  0.00    +0.000 C 
BRANCH  32  36
ATOM     36  O   UNL     1       9.974   0.864  11.348  0.00  0.00    +0.000 OA
ATOM     37  H   UNL     1       9.689   1.598  11.964  0.00  0.00    +0.000 HD
ENDBRANCH  32  36
ENDBRANCH  27  28
ENDBRANCH   5  27
TORSDOF 7
