REMARK  Name = 
REMARK  7 active torsions:
REMARK  status: ('A' for Active; 'I' for Inactive)
REMARK    1  A    between atoms: C_1  and  C_2
REMARK    2  A    between atoms: C_2  and  N_3
REMARK    3  A    between atoms: C_2  and  C_27
REMARK    4  A    between atoms: C_4  and  C_6
REMARK    5  A    between atoms: C_12  and  C_13
REMARK    6  A    between atoms: N_15  and  C_16
REMARK    7  A    between atoms: C_31  and  C_32
REMARK                            x       y       z     vdW  Elec       q    Type
REMARK                         _______ _______ _______ _____ _____    ______ ____
ROOT
ATOM      1  C   UNL     1      -1.427  -2.988   0.880  0.00  0.00    +0.000 A 
ATOM      2  C   UNL     1      -2.376  -2.956   1.868  0.00  0.00    +0.000 A 
ATOM      3  N   UNL     1      -3.602  -2.767   1.309  0.00  0.00    +0.000 N 
ATOM      4  C   UNL     1      -3.504  -2.646  -0.061  0.00  0.00    +0.000 A 
ATOM      5  N   UNL     1      -4.390  -2.446  -1.035  0.00  0.00    +0.000 NA
ATOM      6  C   UNL     1      -3.999  -2.360  -2.299  0.00  0.00    +0.000 A 
ATOM      7  C   UNL     1      -2.642  -2.498  -2.639  0.00  0.00    +0.000 A 
ATOM      8  N   UNL     1      -1.757  -2.694  -1.663  0.00  0.00    +0.000 NA
ATOM      9  C   UNL     1      -2.143  -2.776  -0.392  0.00  0.00    +0.000 A 
ATOM     10  H   UNL     1      -4.476  -2.720   1.833  0.00  0.00    +0.000 HD
ENDROOT
BRANCH   7  11
ATOM     11  C   UNL     1      -2.195  -2.424  -4.090  0.00  0.00    +0.000 A 
ATOM     12  N   UNL     1      -1.570  -3.376  -4.753  0.00  0.00    +0.000 NA
ATOM     13  N   UNL     1      -1.317  -2.988  -5.994  0.00  0.00    +0.000 N 
ATOM     14  C   UNL     1      -0.633  -3.788  -7.020  0.00  0.00    +0.000 C 
ATOM     15  C   UNL     1      -1.786  -1.752  -6.158  0.00  0.00    +0.000 A 
ATOM     16  C   UNL     1      -1.818  -0.831  -7.226  0.00  0.00    +0.000 A 
ATOM     17  C   UNL     1      -2.394   0.378  -7.041  0.00  0.00    +0.000 A 
ATOM     18 CL   UNL     1      -2.440   1.533  -8.394  0.00  0.00    +0.000 Cl
ATOM     19  C   UNL     1      -2.938   0.732  -5.848  0.00  0.00    +0.000 A 
ATOM     20  C   UNL     1      -2.941  -0.111  -4.791  0.00  0.00    +0.000 A 
ATOM     21  F   UNL     1      -3.492   0.264  -3.640  0.00  0.00    +0.000 F 
ATOM     22  C   UNL     1      -2.364  -1.376  -4.912  0.00  0.00    +0.000 A 
ENDBRANCH   7  11
BRANCH   1  24
ATOM     23  N   UNL     1       1.023  -2.346   0.339  0.00  0.00    +0.000 N 
ATOM     24  C   UNL     1       0.068  -3.200   1.060  0.00  0.00    +0.000 C 
ATOM     25  O   UNL     1       0.491  -4.116   1.832  0.00  0.00    +0.000 OA
ATOM     26  H   UNL     1       2.026  -2.489   0.459  0.00  0.00    +0.000 HD
BRANCH  23  28
ATOM     27  C   UNL     1       1.040   0.061  -0.069  0.00  0.00    +0.000 C 
ATOM     28  C   UNL     1       0.533  -1.287  -0.555  0.00  0.00    +0.000 C 
BRANCH  28  29
ATOM     29  C   UNL     1      -0.987  -1.287  -0.555  0.00  0.00    +0.000 C 
ATOM     30  O   UNL     1      -1.623  -1.482  -1.638  0.00  0.00    +0.000 OA
ATOM     31  N   UNL     1      -1.722  -1.062   0.698  0.00  0.00    +0.000 N 
ATOM     32  C   UNL     1      -2.907  -1.713   1.433  0.00  0.00    +0.000 C 
ATOM     33  C   UNL     1      -3.119  -0.358   2.127  0.00  0.00    +0.000 C 
ATOM     34  C   UNL     1      -1.625  -0.085   1.883  0.00  0.00    +0.000 C 
BRANCH  33  35
ATOM     35  C   UNL     1      -3.739  -0.253   3.511  0.00  0.00    +0.000 C 
ATOM     36  N   UNL     1      -4.253  -0.166   4.659  0.00  0.00    +0.000 NA
ENDBRANCH  33  35
ENDBRANCH  28  29
ENDBRANCH  23  28
ENDBRANCH   1  24
TORSDOF 5
