
 OpenBabel03132514253D

 41 44  0  0  0  0  0  0  0  0999 V2000
    1.0511    0.0787   -0.0346 O   0  0  0  0  0  0  0  0  0  0  0  0
    2.3220    0.0787   -0.0346 C   0  0  0  0  0  0  0  0  0  0  0  0
    3.0320    0.7701   -1.0516 O   0  0  0  0  0  0  0  0  0  0  0  0
    3.0820   -0.6614    1.0540 C   0  0  0  0  0  0  0  0  0  0  0  0
    4.0778   -0.2084    1.8881 C   0  0  0  0  0  0  0  0  0  0  0  0
    4.3597   -1.1427    2.8489 N   0  0  0  0  0  0  0  0  0  0  0  0
    3.5786   -2.2533    2.6264 C   0  0  0  0  0  0  0  0  0  0  0  0
    3.5736   -3.4798    3.2995 C   0  0  0  0  0  0  0  0  0  0  0  0
    2.7184   -4.4414    2.7993 C   0  0  0  0  0  0  0  0  0  0  0  0
    2.6762   -6.0091    3.5657 Cl  0  0  0  0  0  0  0  0  0  0  0  0
    1.8940   -4.2311    1.6800 C   0  0  0  0  0  0  0  0  0  0  0  0
    0.9882   -5.3463    1.1837 C   0  0  0  0  0  0  0  0  0  0  0  0
    1.1236   -5.8831   -0.0860 C   0  0  0  0  0  0  0  0  0  0  0  0
    0.0489   -6.7183   -0.4728 C   0  0  0  0  0  0  0  0  0  0  0  0
   -0.8218   -7.2540    0.3632 C   0  0  0  0  0  0  0  0  0  0  0  0
   -1.6730   -8.3219   -0.0258 O   0  0  0  0  0  0  0  0  0  0  0  0
   -2.5956   -8.8695    0.9044 C   0  0  0  0  0  0  0  0  0  0  0  0
   -1.8401   -9.4200    2.1030 C   0  0  0  0  0  0  0  0  0  0  0  0
   -2.4485   -9.0037    3.4534 C   0  0  0  0  0  0  0  0  0  0  0  0
   -2.1501  -10.4313    3.9388 C   0  0  0  0  0  0  0  0  0  0  0  0
   -2.2225  -10.8667    2.4659 O   0  0  0  0  0  0  0  0  0  0  0  0
   -0.8596   -6.7251    1.6234 C   0  0  0  0  0  0  0  0  0  0  0  0
    0.0772   -5.8071    2.0329 C   0  0  0  0  0  0  0  0  0  0  0  0
    1.9065   -3.0078    1.0290 C   0  0  0  0  0  0  0  0  0  0  0  0
    2.7518   -1.9891    1.5038 C   0  0  0  0  0  0  0  0  0  0  0  0
    4.0320    0.7701   -1.0516 H   0  0  0  0  0  0  0  0  0  0  0  0
    4.5639    0.7407    1.7988 H   0  0  0  0  0  0  0  0  0  0  0  0
    5.0364   -1.0334    3.6042 H   0  0  0  0  0  0  0  0  0  0  0  0
    4.1954   -3.6617    4.1511 H   0  0  0  0  0  0  0  0  0  0  0  0
    1.9645   -5.6842   -0.7170 H   0  0  0  0  0  0  0  0  0  0  0  0
   -0.0663   -6.9306   -1.5152 H   0  0  0  0  0  0  0  0  0  0  0  0
   -3.2710   -8.1056    1.2287 H   0  0  0  0  0  0  0  0  0  0  0  0
   -3.1472   -9.6585    0.4374 H   0  0  0  0  0  0  0  0  0  0  0  0
   -0.8438   -9.1521    1.8193 H   0  0  0  0  0  0  0  0  0  0  0  0
   -2.1068   -8.1412    3.9866 H   0  0  0  0  0  0  0  0  0  0  0  0
   -3.4876   -8.7509    3.4175 H   0  0  0  0  0  0  0  0  0  0  0  0
   -2.7374  -10.9046    4.6977 H   0  0  0  0  0  0  0  0  0  0  0  0
   -1.1908  -10.5571    4.3958 H   0  0  0  0  0  0  0  0  0  0  0  0
   -1.6297   -7.0304    2.3006 H   0  0  0  0  0  0  0  0  0  0  0  0
    0.0726   -5.4603    3.0451 H   0  0  0  0  0  0  0  0  0  0  0  0
    1.2815   -2.8406    0.1767 H   0  0  0  0  0  0  0  0  0  0  0  0
  1  2  2  0  0  0  0
  2  3  1  0  0  0  0
  2  4  1  0  0  0  0
  3 26  1  0  0  0  0
  4  5  2  0  0  0  0
  4 25  1  0  0  0  0
  5  6  1  0  0  0  0
  5 27  1  0  0  0  0
  6  7  1  0  0  0  0
  6 28  1  0  0  0  0
  7  8  1  0  0  0  0
  7 25  2  0  0  0  0
  8  9  2  0  0  0  0
  8 29  1  0  0  0  0
  9 10  1  0  0  0  0
  9 11  1  0  0  0  0
 11 12  1  0  0  0  0
 11 24  2  0  0  0  0
 12 13  1  0  0  0  0
 12 23  2  0  0  0  0
 13 14  2  0  0  0  0
 13 30  1  0  0  0  0
 14 15  1  0  0  0  0
 14 31  1  0  0  0  0
 15 16  1  0  0  0  0
 15 22  2  0  0  0  0
 16 17  1  0  0  0  0
 17 18  1  0  0  0  0
 17 32  1  0  0  0  0
 17 33  1  0  0  0  0
 18 19  1  0  0  0  0
 18 21  1  0  0  0  0
 18 34  1  0  0  0  0
 19 20  1  0  0  0  0
 19 35  1  0  0  0  0
 19 36  1  0  0  0  0
 20 21  1  0  0  0  0
 20 37  1  0  0  0  0
 20 38  1  0  0  0  0
 22 23  1  0  0  0  0
 22 39  1  0  0  0  0
 23 40  1  0  0  0  0
 24 25  1  0  0  0  0
 24 41  1  0  0  0  0
M  END
