REMARK  Name = 
REMARK  13 active torsions:
REMARK  status: ('A' for Active; 'I' for Inactive)
REMARK    1  A    between atoms: C_1  and  C_2
REMARK    2  A    between atoms: C_2  and  N_3
REMARK    3  A    between atoms: N_3  and  C_4
REMARK    4  A    between atoms: N_3  and  C_6
REMARK    5  A    between atoms: C_4  and  C_5
REMARK    6  A    between atoms: C_6  and  C_7
REMARK    7  A    between atoms: C_7  and  N_8
REMARK    8  A    between atoms: C_9  and  C_11
REMARK    9  A    between atoms: C_12  and  C_13
REMARK   10  A    between atoms: C_15  and  C_16
REMARK   11  A    between atoms: C_26  and  C_27
REMARK   12  A    between atoms: C_31  and  C_32
REMARK   13  A    between atoms: C_34  and  C_35
REMARK                            x       y       z     vdW  Elec       q    Type
REMARK                         _______ _______ _______ _____ _____    ______ ____
ROOT
ATOM      1  C   UNL     1       4.821   0.911  -2.471  0.00  0.00    +0.000 A 
ATOM      2  C   UNL     1       5.474   0.017  -3.282  0.00  0.00    +0.000 A 
ATOM      3  C   UNL     1       4.969  -0.878  -4.361  0.00  0.00    +0.000 C 
ATOM      4  N   UNL     1       6.797   0.059  -2.954  0.00  0.00    +0.000 N 
ATOM      5  C   UNL     1       7.016   0.981  -1.959  0.00  0.00    +0.000 A 
ATOM      6  C   UNL     1       5.803   1.536  -1.633  0.00  0.00    +0.000 A 
ATOM      7  C   UNL     1       5.532   2.570  -0.570  0.00  0.00    +0.000 C 
ATOM      8  H   UNL     1       7.522  -0.514  -3.386  0.00  0.00    +0.000 HD
ENDROOT
BRANCH   5   9
ATOM      9  C   UNL     1       8.357   1.324  -1.332  0.00  0.00    +0.000 C 
ATOM     10  C   UNL     1       9.350   1.804  -2.101  0.00  0.00    +0.000 C 
ATOM     11  C   UNL     1       9.142   2.061  -3.558  0.00  0.00    +0.000 C 
ATOM     12  O   UNL     1       8.135   1.839  -4.234  0.00  0.00    +0.000 OA
ATOM     13  N   UNL     1      10.285   2.615  -4.031  0.00  0.00    +0.000 N 
ATOM     14  C   UNL     1      11.247   2.736  -3.022  0.00  0.00    +0.000 A 
ATOM     15  C   UNL     1      10.722   2.236  -1.830  0.00  0.00    +0.000 A 
ATOM     16  C   UNL     1      11.567   2.199  -0.728  0.00  0.00    +0.000 A 
ATOM     17  C   UNL     1      12.862   2.689  -0.842  0.00  0.00    +0.000 A 
ATOM     18  C   UNL     1      13.333   3.233  -2.028  0.00  0.00    +0.000 A 
ATOM     19  C   UNL     1      12.516   3.248  -3.154  0.00  0.00    +0.000 A 
ATOM     20  H   UNL     1      10.427   2.906  -4.999  0.00  0.00    +0.000 HD
BRANCH  19  21
ATOM     21  C   UNL     1      13.008   3.807  -4.479  0.00  0.00    +0.000 A 
ATOM     22  C   UNL     1      14.025   3.208  -5.207  0.00  0.00    +0.000 A 
ATOM     23  N   UNL     1      14.415   3.614  -6.411  0.00  0.00    +0.000 NA
ATOM     24  C   UNL     1      13.749   4.650  -6.928  0.00  0.00    +0.000 A 
ATOM     25  C   UNL     1      12.702   5.309  -6.300  0.00  0.00    +0.000 A 
ATOM     26  C   UNL     1      12.024   6.478  -6.972  0.00  0.00    +0.000 C 
ATOM     27  C   UNL     1      12.344   4.871  -5.052  0.00  0.00    +0.000 A 
ENDBRANCH  19  21
ENDBRANCH   5   9
BRANCH   1  29
ATOM     28  N   UNL     1       2.371   0.072  -2.497  0.00  0.00    +0.000 N 
ATOM     29  C   UNL     1       3.327   1.188  -2.463  0.00  0.00    +0.000 C 
ATOM     30  O   UNL     1       2.903   2.386  -2.426  0.00  0.00    +0.000 OA
ATOM     31  H   UNL     1       1.369   0.258  -2.491  0.00  0.00    +0.000 HD
BRANCH  28  32
ATOM     32  C   UNL     1       2.861  -1.314  -2.539  0.00  0.00    +0.000 C 
BRANCH  32  33
ATOM     33  C   UNL     1       2.355  -2.068  -1.320  0.00  0.00    +0.000 C 
BRANCH  33  34
ATOM     34  N   UNL     1       0.885  -2.068  -1.320  0.00  0.00    +0.000 NA
BRANCH  34  36
ATOM     35  C   UNL     1       0.901  -0.004  -0.016  0.00  0.00    +0.000 C 
ATOM     36  C   UNL     1       0.395  -0.682  -1.278  0.00  0.00    +0.000 C 
ENDBRANCH  34  36
BRANCH  34  37
ATOM     37  C   UNL     1       0.395  -2.724  -2.541  0.00  0.00    +0.000 C 
ATOM     38  C   UNL     1       0.901  -1.970  -3.760  0.00  0.00    +0.000 C 
ENDBRANCH  34  37
ENDBRANCH  33  34
ENDBRANCH  32  33
ENDBRANCH  28  32
ENDBRANCH   1  29
TORSDOF 8
