REMARK  Name = 
REMARK  6 active torsions:
REMARK  status: ('A' for Active; 'I' for Inactive)
REMARK    1  A    between atoms: C_2  and  O_3
REMARK    2  A    between atoms: C_2  and  C_4
REMARK    3  A    between atoms: C_11  and  C_12
REMARK    4  A    between atoms: C_15  and  O_16
REMARK    5  A    between atoms: O_16  and  C_17
REMARK    6  A    between atoms: C_17  and  C_18
REMARK                            x       y       z     vdW  Elec       q    Type
REMARK                         _______ _______ _______ _____ _____    ______ ____
ROOT
ATOM      1  C   UNL     1       3.041   1.266   0.428  0.00  0.00    +0.000 A 
ATOM      2  C   UNL     1       4.109   1.758  -0.287  0.00  0.00    +0.000 A 
ATOM      3  N   UNL     1       4.521   2.957   0.232  0.00  0.00    +0.000 N 
ATOM      4  C   UNL     1       3.752   3.246   1.336  0.00  0.00    +0.000 A 
ATOM      5  C   UNL     1       3.857   4.319   2.229  0.00  0.00    +0.000 A 
ATOM      6  C   UNL     1       2.980   4.306   3.296  0.00  0.00    +0.000 A 
ATOM      7 CL   UNL     1       3.067   5.593   4.471  0.00  0.00    +0.000 Cl
ATOM      8  C   UNL     1       2.033   3.287   3.501  0.00  0.00    +0.000 A 
ATOM      9  C   UNL     1       1.938   2.236   2.603  0.00  0.00    +0.000 A 
ATOM     10  C   UNL     1       2.801   2.206   1.493  0.00  0.00    +0.000 A 
ATOM     11  H   UNL     1       5.272   3.538  -0.138  0.00  0.00    +0.000 HD
ENDROOT
BRANCH   8  12
ATOM     12  C   UNL     1       1.111   3.340   4.708  0.00  0.00    +0.000 A 
ATOM     13  C   UNL     1       1.139   2.307   5.631  0.00  0.00    +0.000 A 
ATOM     14  C   UNL     1       0.052   2.316   6.536  0.00  0.00    +0.000 A 
ATOM     15  C   UNL     1      -0.726   3.359   6.761  0.00  0.00    +0.000 A 
ATOM     16  C   UNL     1      -0.659   4.377   5.850  0.00  0.00    +0.000 A 
ATOM     17  C   UNL     1       0.292   4.375   4.858  0.00  0.00    +0.000 A 
BRANCH  15  18
ATOM     18  O   UNL     1      -1.587   3.421   7.889  0.00  0.00    +0.000 OA
BRANCH  18  19
ATOM     19  C   UNL     1      -2.407   4.561   8.095  0.00  0.00    +0.000 C 
BRANCH  19  20
ATOM     20  C   UNL     1      -1.533   5.797   8.232  0.00  0.00    +0.000 A 
ATOM     21  C   UNL     1      -2.099   7.069   8.118  0.00  0.00    +0.000 A 
ATOM     22  C   UNL     1      -1.259   8.164   8.271  0.00  0.00    +0.000 A 
ATOM     23  C   UNL     1       0.076   7.954   8.531  0.00  0.00    +0.000 A 
ATOM     24  N   UNL     1       0.627   6.739   8.619  0.00  0.00    +0.000 NA
ATOM     25  C   UNL     1      -0.178   5.676   8.470  0.00  0.00    +0.000 A 
ENDBRANCH  19  20
ENDBRANCH  18  19
ENDBRANCH  15  18
ENDBRANCH   8  12
BRANCH   1  27
ATOM     26  O   UNL     1       1.010  -0.009   0.099  0.00  0.00    +0.000 OA
ATOM     27  C   UNL     1       2.281  -0.009   0.099  0.00  0.00    +0.000 C 
BRANCH  27  28
ATOM     28  O   UNL     1       2.991  -1.199  -0.208  0.00  0.00    +0.000 OA
ATOM     29  H   UNL     1       3.991  -1.199  -0.208  0.00  0.00    +0.000 HD
ENDBRANCH  27  28
ENDBRANCH   1  27
TORSDOF 6
