REMARK  Name = 
REMARK  4 active torsions:
REMARK  status: ('A' for Active; 'I' for Inactive)
REMARK    1  A    between atoms: C_1  and  C_2
REMARK    2  A    between atoms: C_2  and  C_3
REMARK    3  A    between atoms: C_11  and  C_12
REMARK    4  A    between atoms: N_17  and  C_18
REMARK                            x       y       z     vdW  Elec       q    Type
REMARK                         _______ _______ _______ _____ _____    ______ ____
ROOT
ATOM      1  C   UNL     1       0.932  -2.465  -0.019  0.00  0.00    +0.000 A 
ATOM      2  N   UNL     1       1.660  -2.512   1.086  0.00  0.00    +0.000 NA
ATOM      3  N   UNL     1       1.742  -3.779   1.489  0.00  0.00    +0.000 N 
ATOM      4  N   UNL     1       2.362  -4.444   2.568  0.00  0.00    +0.000 NA
ATOM      5  C   UNL     1       2.239  -5.785   2.679  0.00  0.00    +0.000 A 
ATOM      6  C   UNL     1       1.536  -6.512   1.771  0.00  0.00    +0.000 A 
ATOM      7  C   UNL     1       0.917  -5.929   0.720  0.00  0.00    +0.000 A 
ATOM      8  C   UNL     1       1.003  -4.546   0.546  0.00  0.00    +0.000 A 
ATOM      9  C   UNL     1       0.530  -3.673  -0.359  0.00  0.00    +0.000 A 
ENDROOT
BRANCH   9  10
ATOM     10  C   UNL     1      -0.322  -4.020  -1.568  0.00  0.00    +0.000 A 
ATOM     11  C   UNL     1       0.113  -3.686  -2.846  0.00  0.00    +0.000 A 
ATOM     12  C   UNL     1      -0.453  -4.415  -3.916  0.00  0.00    +0.000 A 
ATOM     13  N   UNL     1      -1.790  -4.782  -3.775  0.00  0.00    +0.000 NA
ATOM     14  C   UNL     1      -2.289  -4.868  -2.560  0.00  0.00    +0.000 A 
ATOM     15  N   UNL     1      -3.698  -5.249  -2.379  0.00  0.00    +0.000 N 
ATOM     16  N   UNL     1      -1.496  -4.602  -1.440  0.00  0.00    +0.000 NA
ATOM     17  H   UNL     1      -4.091  -5.318  -1.441  0.00  0.00    +0.000 HD
BRANCH  15  18
ATOM     18  C   UNL     1      -4.539  -5.531  -3.551  0.00  0.00    +0.000 C 
ATOM     19  C   UNL     1      -4.033  -5.199  -4.956  0.00  0.00    +0.000 C 
ATOM     20  C   UNL     1      -4.159  -6.659  -4.514  0.00  0.00    +0.000 C 
ENDBRANCH  15  18
ENDBRANCH   9  10
BRANCH   1  22
ATOM     21  C   UNL     1       0.932   0.016  -0.071  0.00  0.00    +0.000 C 
ATOM     22  C   UNL     1       0.425  -1.239  -0.761  0.00  0.00    +0.000 C 
ENDBRANCH   1  22
TORSDOF 3
