
 OpenBabel03132514253D

 62 65  0  0  0  0  0  0  0  0999 V2000
    0.9925   -0.0677    0.0733 C   0  0  0  0  0  0  0  0  0  0  0  0
    0.5192    0.8930   -0.8592 O   0  0  0  0  0  0  0  0  0  0  0  0
    0.8622    2.2622   -0.7039 C   0  0  0  0  0  0  0  0  0  0  0  0
   -0.1208    3.2023   -0.8415 C   0  0  0  0  0  0  0  0  0  0  0  0
    0.1737    4.5712   -0.6536 C   0  0  0  0  0  0  0  0  0  0  0  0
   -0.8253    5.5047   -0.7632 N   0  0  0  0  0  0  0  0  0  0  0  0
   -0.4813    6.7498   -0.5801 C   0  0  0  0  0  0  0  0  0  0  0  0
    0.7727    7.2241   -0.3054 N   0  0  0  0  0  0  0  0  0  0  0  0
    1.7403    6.3442   -0.2118 C   0  0  0  0  0  0  0  0  0  0  0  0
    3.1076    6.8122    0.0568 N   0  0  0  0  0  0  0  0  0  0  0  0
    3.3746    8.2489    0.2164 C   0  0  0  0  0  0  0  0  0  0  0  0
    4.2387    8.8776   -0.6564 C   0  0  0  0  0  0  0  0  0  0  0  0
    4.5008   10.2376   -0.5524 C   0  0  0  0  0  0  0  0  0  0  0  0
    3.8752   10.9716    0.4539 C   0  0  0  0  0  0  0  0  0  0  0  0
    3.0092   10.3405    1.3268 C   0  0  0  0  0  0  0  0  0  0  0  0
    2.1949   11.2500    2.5531 Cl  0  0  0  0  0  0  0  0  0  0  0  0
    2.7730    8.9903    1.2007 C   0  0  0  0  0  0  0  0  0  0  0  0
    1.9096    8.3885    2.0440 F   0  0  0  0  0  0  0  0  0  0  0  0
    1.5043    4.9480   -0.3629 C   0  0  0  0  0  0  0  0  0  0  0  0
    2.5062    3.9587   -0.2400 C   0  0  0  0  0  0  0  0  0  0  0  0
    2.1842    2.6413   -0.4014 C   0  0  0  0  0  0  0  0  0  0  0  0
    3.2597    1.5775   -0.2535 C   0  0  0  0  0  0  0  0  0  0  0  0
    4.3195    1.8110   -1.2451 N   0  0  0  0  0  0  0  0  0  0  0  0
    5.3597    0.7822   -1.1021 C   0  0  0  0  0  0  0  0  0  0  0  0
    3.7480    1.7453   -2.5978 C   0  0  0  0  0  0  0  0  0  0  0  0
    5.0477    1.8688   -3.3763 C   0  0  0  0  0  0  0  0  0  0  0  0
    6.3243    2.0000   -2.6594 N   0  0  0  0  0  0  0  0  0  0  0  0
    5.0307    1.8585   -4.6471 O   0  0  0  0  0  0  0  0  0  0  0  0
    2.7683    0.5817   -2.8282 C   0  0  0  0  0  0  0  0  0  0  0  0
    1.9297    1.5577   -3.6691 N   0  0  0  0  0  0  0  0  0  0  0  0
    2.2652    1.5809   -5.1002 C   0  0  0  0  0  0  0  0  0  0  0  0
    3.7190    1.9894   -5.2732 C   0  0  0  0  0  0  0  0  0  0  0  0
    2.0538    0.1971   -5.6926 C   0  0  0  0  0  0  0  0  0  0  0  0
    2.5585    2.6919   -2.8430 C   0  0  0  0  0  0  0  0  0  0  0  0
    0.6359   -1.0381   -0.2024 H   0  0  0  0  0  0  0  0  0  0  0  0
    0.6359    0.1788    1.0515 H   0  0  0  0  0  0  0  0  0  0  0  0
    2.0625   -0.0677    0.0733 H   0  0  0  0  0  0  0  0  0  0  0  0
   -1.1162    2.9003   -1.0923 H   0  0  0  0  0  0  0  0  0  0  0  0
   -1.2626    7.4773   -0.6522 H   0  0  0  0  0  0  0  0  0  0  0  0
    3.8711    6.1401    0.1325 H   0  0  0  0  0  0  0  0  0  0  0  0
    4.7150    8.3077   -1.4266 H   0  0  0  0  0  0  0  0  0  0  0  0
    5.1730   10.7147   -1.2347 H   0  0  0  0  0  0  0  0  0  0  0  0
    4.0649   12.0203    0.5504 H   0  0  0  0  0  0  0  0  0  0  0  0
    3.5148    4.2412   -0.0210 H   0  0  0  0  0  0  0  0  0  0  0  0
    3.6757    1.6253    0.7311 H   0  0  0  0  0  0  0  0  0  0  0  0
    2.8294    0.6108   -0.4124 H   0  0  0  0  0  0  0  0  0  0  0  0
    4.9294   -0.1845   -1.2609 H   0  0  0  0  0  0  0  0  0  0  0  0
    6.1311    0.9522   -1.8238 H   0  0  0  0  0  0  0  0  0  0  0  0
    5.7757    0.8300   -0.1174 H   0  0  0  0  0  0  0  0  0  0  0  0
    7.1964    2.0829   -3.1817 H   0  0  0  0  0  0  0  0  0  0  0  0
    6.3379    2.0082   -1.6395 H   0  0  0  0  0  0  0  0  0  0  0  0
    3.0917   -0.3632   -3.2122 H   0  0  0  0  0  0  0  0  0  0  0  0
    2.2843    0.2221   -1.9443 H   0  0  0  0  0  0  0  0  0  0  0  0
    1.6348    2.2842   -5.6029 H   0  0  0  0  0  0  0  0  0  0  0  0
    4.3494    1.2860   -4.7705 H   0  0  0  0  0  0  0  0  0  0  0  0
    3.9632    2.0063   -6.3148 H   0  0  0  0  0  0  0  0  0  0  0  0
    3.8678    2.9634   -4.8561 H   0  0  0  0  0  0  0  0  0  0  0  0
    1.0303   -0.0904   -5.5708 H   0  0  0  0  0  0  0  0  0  0  0  0
    2.2979    0.2140   -6.7343 H   0  0  0  0  0  0  0  0  0  0  0  0
    2.6841   -0.5062   -5.1899 H   0  0  0  0  0  0  0  0  0  0  0  0
    2.0350    3.1644   -2.0384 H   0  0  0  0  0  0  0  0  0  0  0  0
    2.7954    3.5740   -3.4004 H   0  0  0  0  0  0  0  0  0  0  0  0
  1  2  1  0  0  0  0
  1 35  1  0  0  0  0
  1 36  1  0  0  0  0
  1 37  1  0  0  0  0
  2  3  1  0  0  0  0
  3  4  1  0  0  0  0
  3 21  2  0  0  0  0
  4  5  2  0  0  0  0
  4 38  1  0  0  0  0
  5  6  1  0  0  0  0
  5 19  1  0  0  0  0
  6  7  2  0  0  0  0
  7  8  1  0  0  0  0
  7 39  1  0  0  0  0
  8  9  2  0  0  0  0
  9 10  1  0  0  0  0
  9 19  1  0  0  0  0
 10 11  1  0  0  0  0
 10 40  1  0  0  0  0
 11 12  1  0  0  0  0
 11 17  2  0  0  0  0
 12 13  2  0  0  0  0
 12 41  1  0  0  0  0
 13 14  1  0  0  0  0
 13 42  1  0  0  0  0
 14 15  2  0  0  0  0
 14 43  1  0  0  0  0
 15 16  1  0  0  0  0
 15 17  1  0  0  0  0
 17 18  1  0  0  0  0
 19 20  2  0  0  0  0
 20 21  1  0  0  0  0
 20 44  1  0  0  0  0
 21 22  1  0  0  0  0
 22 23  1  0  0  0  0
 22 45  1  0  0  0  0
 22 46  1  0  0  0  0
 23 24  1  0  0  0  0
 23 25  1  0  0  0  0
 24 47  1  0  0  0  0
 24 48  1  0  0  0  0
 24 49  1  0  0  0  0
 25 26  1  0  0  0  0
 25 29  1  0  0  0  0
 25 34  1  0  0  0  0
 26 27  1  0  0  0  0
 26 28  2  0  0  0  0
 27 50  1  0  0  0  0
 27 51  1  0  0  0  0
 29 30  1  0  0  0  0
 29 52  1  0  0  0  0
 29 53  1  0  0  0  0
 30 31  1  0  0  0  0
 30 34  1  0  0  0  0
 31 32  1  0  0  0  0
 31 33  1  0  0  0  0
 31 54  1  0  0  0  0
 32 55  1  0  0  0  0
 32 56  1  0  0  0  0
 32 57  1  0  0  0  0
 33 58  1  0  0  0  0
 33 59  1  0  0  0  0
 33 60  1  0  0  0  0
 34 61  1  0  0  0  0
 34 62  1  0  0  0  0
M  END
