
 OpenBabel03132514253D

 42 45  0  0  0  0  0  0  0  0999 V2000
    1.0101   -0.0087    0.0991 O   0  0  0  0  0  0  0  0  0  0  0  0
    2.2810   -0.0087    0.0991 C   0  0  0  0  0  0  0  0  0  0  0  0
    2.9910   -1.1994   -0.2081 O   0  0  0  0  0  0  0  0  0  0  0  0
    3.0410    1.2660    0.4280 C   0  0  0  0  0  0  0  0  0  0  0  0
    4.1086    1.7582   -0.2867 C   0  0  0  0  0  0  0  0  0  0  0  0
    4.5207    2.9566    0.2324 N   0  0  0  0  0  0  0  0  0  0  0  0
    3.7525    3.2464    1.3364 C   0  0  0  0  0  0  0  0  0  0  0  0
    3.8567    4.3185    2.2291 C   0  0  0  0  0  0  0  0  0  0  0  0
    2.9801    4.3055    3.2958 C   0  0  0  0  0  0  0  0  0  0  0  0
    3.0674    5.5932    4.4710 Cl  0  0  0  0  0  0  0  0  0  0  0  0
    2.0325    3.2874    3.5009 C   0  0  0  0  0  0  0  0  0  0  0  0
    1.1106    3.3400    4.7083 C   0  0  0  0  0  0  0  0  0  0  0  0
    1.1395    2.3072    5.6308 C   0  0  0  0  0  0  0  0  0  0  0  0
    0.0519    2.3162    6.5358 C   0  0  0  0  0  0  0  0  0  0  0  0
   -0.7262    3.3592    6.7613 C   0  0  0  0  0  0  0  0  0  0  0  0
   -1.5866    3.4208    7.8892 O   0  0  0  0  0  0  0  0  0  0  0  0
   -2.4073    4.5612    8.0947 C   0  0  0  0  0  0  0  0  0  0  0  0
   -1.5327    5.7968    8.2321 C   0  0  0  0  0  0  0  0  0  0  0  0
   -2.0994    7.0687    8.1183 C   0  0  0  0  0  0  0  0  0  0  0  0
   -1.2592    8.1644    8.2712 C   0  0  0  0  0  0  0  0  0  0  0  0
    0.0757    7.9536    8.5307 C   0  0  0  0  0  0  0  0  0  0  0  0
    0.6272    6.7393    8.6193 N   0  0  0  0  0  0  0  0  0  0  0  0
   -0.1778    5.6757    8.4699 C   0  0  0  0  0  0  0  0  0  0  0  0
   -0.6587    4.3765    5.8502 C   0  0  0  0  0  0  0  0  0  0  0  0
    0.2920    4.3748    4.8582 C   0  0  0  0  0  0  0  0  0  0  0  0
    1.9383    2.2359    2.6031 C   0  0  0  0  0  0  0  0  0  0  0  0
    2.8006    2.2056    1.4926 C   0  0  0  0  0  0  0  0  0  0  0  0
    3.9910   -1.1994   -0.2081 H   0  0  0  0  0  0  0  0  0  0  0  0
    4.5542    1.2728   -1.1298 H   0  0  0  0  0  0  0  0  0  0  0  0
    5.2725    3.5379   -0.1380 H   0  0  0  0  0  0  0  0  0  0  0  0
    4.5729    5.1018    2.0933 H   0  0  0  0  0  0  0  0  0  0  0  0
    1.9140    1.5694    5.6566 H   0  0  0  0  0  0  0  0  0  0  0  0
   -0.1546    1.4153    7.0750 H   0  0  0  0  0  0  0  0  0  0  0  0
   -3.0661    4.6816    7.2602 H   0  0  0  0  0  0  0  0  0  0  0  0
   -2.9827    4.4305    8.9873 H   0  0  0  0  0  0  0  0  0  0  0  0
   -3.1434    7.1945    7.9205 H   0  0  0  0  0  0  0  0  0  0  0  0
   -1.6449    9.1590    8.1883 H   0  0  0  0  0  0  0  0  0  0  0  0
    0.7057    8.8074    8.6689 H   0  0  0  0  0  0  0  0  0  0  0  0
    0.2469    4.6959    8.5376 H   0  0  0  0  0  0  0  0  0  0  0  0
   -1.3563    5.1856    5.9107 H   0  0  0  0  0  0  0  0  0  0  0  0
    0.3735    5.2148    4.2006 H   0  0  0  0  0  0  0  0  0  0  0  0
    1.2193    1.4577    2.7528 H   0  0  0  0  0  0  0  0  0  0  0  0
  1  2  2  0  0  0  0
  2  3  1  0  0  0  0
  2  4  1  0  0  0  0
  3 28  1  0  0  0  0
  4  5  2  0  0  0  0
  4 27  1  0  0  0  0
  5  6  1  0  0  0  0
  5 29  1  0  0  0  0
  6  7  1  0  0  0  0
  6 30  1  0  0  0  0
  7  8  1  0  0  0  0
  7 27  2  0  0  0  0
  8  9  2  0  0  0  0
  8 31  1  0  0  0  0
  9 10  1  0  0  0  0
  9 11  1  0  0  0  0
 11 12  1  0  0  0  0
 11 26  2  0  0  0  0
 12 13  1  0  0  0  0
 12 25  2  0  0  0  0
 13 14  2  0  0  0  0
 13 32  1  0  0  0  0
 14 15  1  0  0  0  0
 14 33  1  0  0  0  0
 15 16  1  0  0  0  0
 15 24  2  0  0  0  0
 16 17  1  0  0  0  0
 17 18  1  0  0  0  0
 17 34  1  0  0  0  0
 17 35  1  0  0  0  0
 18 19  1  0  0  0  0
 18 23  2  0  0  0  0
 19 20  2  0  0  0  0
 19 36  1  0  0  0  0
 20 21  1  0  0  0  0
 20 37  1  0  0  0  0
 21 22  2  0  0  0  0
 21 38  1  0  0  0  0
 22 23  1  0  0  0  0
 23 39  1  0  0  0  0
 24 25  1  0  0  0  0
 24 40  1  0  0  0  0
 25 41  1  0  0  0  0
 26 27  1  0  0  0  0
 26 42  1  0  0  0  0
M  END
