REMARK  Name = 
REMARK  9 active torsions:
REMARK  status: ('A' for Active; 'I' for Inactive)
REMARK    1  A    between atoms: C_1  and  S_2
REMARK    2  A    between atoms: S_2  and  N_37
REMARK    3  A    between atoms: N_4  and  C_5
REMARK    4  A    between atoms: C_8  and  C_9
REMARK    5  A    between atoms: C_12  and  C_13
REMARK    6  A    between atoms: C_17  and  O_18
REMARK    7  A    between atoms: O_18  and  C_19
REMARK    8  A    between atoms: C_23  and  O_24
REMARK    9  A    between atoms: N_37  and  C_38
REMARK                            x       y       z     vdW  Elec       q    Type
REMARK                         _______ _______ _______ _____ _____    ______ ____
ROOT
ATOM      1  C   UNL     1      -4.079   4.140  -1.437  0.00  0.00    +0.000 A 
ATOM      2  C   UNL     1      -3.952   5.409  -0.897  0.00  0.00    +0.000 A 
ATOM      3  C   UNL     1      -4.800   6.373  -1.493  0.00  0.00    +0.000 A 
ATOM      4  C   UNL     1      -5.392   6.228  -2.664  0.00  0.00    +0.000 A 
ATOM      5  C   UNL     1      -5.425   4.961  -3.176  0.00  0.00    +0.000 A 
ATOM      6  C   UNL     1      -4.729   3.938  -2.578  0.00  0.00    +0.000 A 
ENDROOT
BRANCH   4   7
ATOM      7  C   UNL     1      -6.004   7.407  -3.404  0.00  0.00    +0.000 A 
ATOM      8  N   UNL     1      -5.313   8.565  -3.699  0.00  0.00    +0.000 NA
ATOM      9  C   UNL     1      -5.993   9.653  -4.255  0.00  0.00    +0.000 A 
ATOM     10  N   UNL     1      -5.586  10.992  -4.677  0.00  0.00    +0.000 NA
ATOM     11  C   UNL     1      -6.639  11.605  -5.131  0.00  0.00    +0.000 A 
ATOM     12  N   UNL     1      -7.757  10.770  -5.049  0.00  0.00    +0.000 N 
ATOM     13  C   UNL     1      -7.372   9.559  -4.509  0.00  0.00    +0.000 A 
ATOM     14  C   UNL     1      -8.051   8.385  -4.206  0.00  0.00    +0.000 A 
ATOM     15  C   UNL     1      -7.372   7.317  -3.664  0.00  0.00    +0.000 A 
ATOM     16 CL   UNL     1      -8.245   5.811  -3.292  0.00  0.00    +0.000 Cl
ATOM     17  H   UNL     1      -8.703  11.014  -5.341  0.00  0.00    +0.000 HD
BRANCH  11  18
ATOM     18  O   UNL     1      -6.652  12.932  -5.637  0.00  0.00    +0.000 OA
BRANCH  18  19
ATOM     19  C   UNL     1      -5.452  13.690  -5.673  0.00  0.00    +0.000 C 
ATOM     20  C   UNL     1      -4.478  13.142  -6.416  0.00  0.00    +0.000 C 
ATOM     21  O   UNL     1      -3.562  12.406  -5.558  0.00  0.00    +0.000 OA
ATOM     22  C   UNL     1      -3.704  13.010  -4.148  0.00  0.00    +0.000 C 
ATOM     23  C   UNL     1      -2.493  13.868  -3.848  0.00  0.00    +0.000 C 
ATOM     24  C   UNL     1      -2.722  15.089  -4.407  0.00  0.00    +0.000 C 
ATOM     25  O   UNL     1      -4.147  15.382  -4.392  0.00  0.00    +0.000 OA
ATOM     26  C   UNL     1      -4.871  14.024  -4.313  0.00  0.00    +0.000 C 
BRANCH  23  27
ATOM     27  O   UNL     1      -1.313  13.282  -4.378  0.00  0.00    +0.000 OA
ATOM     28  H   UNL     1      -1.407  13.179  -5.368  0.00  0.00    +0.000 HD
ENDBRANCH  23  27
ENDBRANCH  18  19
ENDBRANCH  11  18
ENDBRANCH   4   7
BRANCH   1  32
ATOM     29  C   UNL     1      -1.865   1.229   0.769  0.00  0.00    +0.000 A 
ATOM     30  C   UNL     1      -2.858   1.944   1.420  0.00  0.00    +0.000 A 
ATOM     31  C   UNL     1      -3.670   2.715   0.556  0.00  0.00    +0.000 A 
ATOM     32  C   UNL     1      -3.345   3.045  -0.681  0.00  0.00    +0.000 A 
ATOM     33  C   UNL     1      -2.311   2.349  -1.244  0.00  0.00    +0.000 A 
ATOM     34  C   UNL     1      -1.554   1.480  -0.497  0.00  0.00    +0.000 A 
BRANCH  29  38
ATOM     35  C   UNL     1       1.048  -0.064  -0.060  0.00  0.00    +0.000 C 
ATOM     36  S   UNL     1       0.445   0.275   1.612  0.00  0.00    +0.000 S 
ATOM     37  O   UNL     1       0.955   1.643   2.071  0.00  0.00    +0.000 OA
ATOM     38  N   UNL     1      -1.130   0.275   1.612  0.00  0.00    +0.000 NA
BRANCH  36  39
ATOM     39  N   UNL     1       1.031  -0.968   2.711  0.00  0.00    +0.000 NA
ATOM     40  H   UNL     1       0.691  -0.777   3.654  0.00  0.00    +0.000 HD
BRANCH  39  41
ATOM     41  C   UNL     1       2.501  -0.968   2.711  0.00  0.00    +0.000 C 
ATOM     42  C   UNL     1       3.145   0.177   3.512  0.00  0.00    +0.000 C 
ATOM     43  C   UNL     1       4.201  -0.842   3.970  0.00  0.00    +0.000 C 
ATOM     44  C   UNL     1       3.146  -1.933   3.723  0.00  0.00    +0.000 C 
ENDBRANCH  39  41
ENDBRANCH  36  39
ENDBRANCH  29  38
ENDBRANCH   1  32
TORSDOF 8
