REMARK  Name = 
REMARK  4 active torsions:
REMARK  status: ('A' for Active; 'I' for Inactive)
REMARK    1  A    between atoms: C_2  and  O_3
REMARK    2  A    between atoms: C_2  and  C_4
REMARK    3  A    between atoms: C_11  and  C_12
REMARK    4  A    between atoms: C_15  and  C_16
REMARK                            x       y       z     vdW  Elec       q    Type
REMARK                         _______ _______ _______ _____ _____    ______ ____
ROOT
ATOM      1  C   UNL     1       3.059   1.114  -0.505  0.00  0.00    +0.000 A 
ATOM      2  N   UNL     1       4.122   1.013  -1.247  0.00  0.00    +0.000 NA
ATOM      3  N   UNL     1       4.643   2.281  -1.520  0.00  0.00    +0.000 N 
ATOM      4  C   UNL     1       3.851   3.231  -0.906  0.00  0.00    +0.000 A 
ATOM      5  C   UNL     1       3.895   4.619  -0.841  0.00  0.00    +0.000 A 
ATOM      6  C   UNL     1       2.932   5.305  -0.135  0.00  0.00    +0.000 A 
ATOM      7 CL   UNL     1       2.986   7.083  -0.067  0.00  0.00    +0.000 Cl
ATOM      8  C   UNL     1       1.915   4.617   0.528  0.00  0.00    +0.000 A 
ATOM      9  C   UNL     1       1.855   3.239   0.473  0.00  0.00    +0.000 A 
ATOM     10  C   UNL     1       2.825   2.533  -0.246  0.00  0.00    +0.000 A 
ATOM     11  H   UNL     1       5.473   2.474  -2.080  0.00  0.00    +0.000 HD
ENDROOT
BRANCH   8  12
ATOM     12  C   UNL     1       0.868   5.389   1.314  0.00  0.00    +0.000 A 
ATOM     13  C   UNL     1       0.012   6.354   0.711  0.00  0.00    +0.000 A 
ATOM     14  C   UNL     1      -0.764   7.192   1.528  0.00  0.00    +0.000 A 
ATOM     15  C   UNL     1      -0.912   6.915   2.790  0.00  0.00    +0.000 A 
ATOM     16  C   UNL     1      -0.307   5.775   3.335  0.00  0.00    +0.000 A 
ATOM     17  C   UNL     1       0.707   5.106   2.607  0.00  0.00    +0.000 A 
BRANCH  15  18
ATOM     18  C   UNL     1      -1.744   7.830   3.675  0.00  0.00    +0.000 C 
ATOM     19  C   UNL     1      -0.856   8.365   4.791  0.00  0.00    +0.000 C 
ATOM     20  C   UNL     1      -1.108   7.374   5.931  0.00  0.00    +0.000 C 
ATOM     21  O   UNL     1      -2.458   6.879   5.733  0.00  0.00    +0.000 OA
ATOM     22  C   UNL     1      -2.947   7.280   4.447  0.00  0.00    +0.000 C 
ENDBRANCH  15  18
ENDBRANCH   8  12
BRANCH   1  24
ATOM     23  O   UNL     1       1.028  -0.094   0.018  0.00  0.00    +0.000 OA
ATOM     24  C   UNL     1       2.299  -0.094   0.018  0.00  0.00    +0.000 C 
BRANCH  24  25
ATOM     25  O   UNL     1       3.009  -1.223   0.507  0.00  0.00    +0.000 OA
ATOM     26  H   UNL     1       4.009  -1.223   0.507  0.00  0.00    +0.000 HD
ENDBRANCH  24  25
ENDBRANCH   1  24
TORSDOF 4
