
 OpenBabel03132514253D

 51 54  0  0  0  0  0  0  0  0999 V2000
    1.0200    0.0886    0.0418 O   0  0  0  0  0  0  0  0  0  0  0  0
    2.2909    0.0886    0.0418 C   0  0  0  0  0  0  0  0  0  0  0  0
    3.0009    1.0401    0.8209 O   0  0  0  0  0  0  0  0  0  0  0  0
    3.0509   -0.9298   -0.7922 C   0  0  0  0  0  0  0  0  0  0  0  0
    4.2205   -1.6015   -0.5208 C   0  0  0  0  0  0  0  0  0  0  0  0
    4.6059   -2.3481   -1.6022 N   0  0  0  0  0  0  0  0  0  0  0  0
    3.7114   -2.1360   -2.6258 C   0  0  0  0  0  0  0  0  0  0  0  0
    3.7382   -2.6209   -3.9379 C   0  0  0  0  0  0  0  0  0  0  0  0
    2.7298   -2.1748   -4.7688 C   0  0  0  0  0  0  0  0  0  0  0  0
    2.7110   -2.7105   -6.4300 Cl  0  0  0  0  0  0  0  0  0  0  0  0
    1.7258   -1.2836   -4.3510 C   0  0  0  0  0  0  0  0  0  0  0  0
    0.6566   -0.8302   -5.3317 C   0  0  0  0  0  0  0  0  0  0  0  0
    0.5691    0.5180   -5.6370 C   0  0  0  0  0  0  0  0  0  0  0  0
   -0.5997    0.8689   -6.3531 C   0  0  0  0  0  0  0  0  0  0  0  0
   -1.3674    0.0111   -7.0003 C   0  0  0  0  0  0  0  0  0  0  0  0
   -2.3300    0.4391   -7.9524 O   0  0  0  0  0  0  0  0  0  0  0  0
   -3.1356   -0.5166   -8.6264 C   0  0  0  0  0  0  0  0  0  0  0  0
   -2.2452   -1.4693   -9.4073 C   0  0  0  0  0  0  0  0  0  0  0  0
   -1.3053   -2.1839   -8.4500 C   0  0  0  0  0  0  0  0  0  0  0  0
   -2.0915   -2.9428   -7.4667 N   0  0  0  0  0  0  0  0  0  0  0  0
   -2.0834   -4.4288   -7.5515 C   0  0  0  0  0  0  0  0  0  0  0  0
   -2.9540   -5.0696   -6.4872 C   0  0  0  0  0  0  0  0  0  0  0  0
   -2.6869   -4.4745   -5.2160 O   0  0  0  0  0  0  0  0  0  0  0  0
   -3.2030   -3.1611   -5.2451 C   0  0  0  0  0  0  0  0  0  0  0  0
   -2.7328   -2.3121   -6.4178 C   0  0  0  0  0  0  0  0  0  0  0  0
   -2.9518   -1.1134   -6.3688 O   0  0  0  0  0  0  0  0  0  0  0  0
   -1.1854   -1.3113   -6.7043 C   0  0  0  0  0  0  0  0  0  0  0  0
   -0.1443   -1.7200   -5.9061 C   0  0  0  0  0  0  0  0  0  0  0  0
    1.7104   -0.8182   -3.0458 C   0  0  0  0  0  0  0  0  0  0  0  0
    2.7088   -1.2494   -2.1542 C   0  0  0  0  0  0  0  0  0  0  0  0
    4.0009    1.0401    0.8209 H   0  0  0  0  0  0  0  0  0  0  0  0
    4.7540   -1.5481    0.4052 H   0  0  0  0  0  0  0  0  0  0  0  0
    5.4211   -2.9600   -1.6422 H   0  0  0  0  0  0  0  0  0  0  0  0
    4.4949   -3.2970   -4.2771 H   0  0  0  0  0  0  0  0  0  0  0  0
    1.3174    1.2296   -5.3566 H   0  0  0  0  0  0  0  0  0  0  0  0
   -0.8811    1.9010   -6.3716 H   0  0  0  0  0  0  0  0  0  0  0  0
   -3.7078   -1.0690   -7.9106 H   0  0  0  0  0  0  0  0  0  0  0  0
   -3.7972   -0.0135   -9.3003 H   0  0  0  0  0  0  0  0  0  0  0  0
   -2.8522   -2.1894   -9.9151 H   0  0  0  0  0  0  0  0  0  0  0  0
   -1.6730   -0.9169  -10.1231 H   0  0  0  0  0  0  0  0  0  0  0  0
   -0.6785   -2.8546   -8.9997 H   0  0  0  0  0  0  0  0  0  0  0  0
   -0.6983   -1.4638   -7.9422 H   0  0  0  0  0  0  0  0  0  0  0  0
   -1.0780   -4.7606   -7.3963 H   0  0  0  0  0  0  0  0  0  0  0  0
   -2.4462   -4.7206   -8.5149 H   0  0  0  0  0  0  0  0  0  0  0  0
   -2.7370   -6.1162   -6.4383 H   0  0  0  0  0  0  0  0  0  0  0  0
   -3.9842   -4.9247   -6.7372 H   0  0  0  0  0  0  0  0  0  0  0  0
   -2.8418   -2.6778   -4.3615 H   0  0  0  0  0  0  0  0  0  0  0  0
   -4.2703   -3.2246   -5.2879 H   0  0  0  0  0  0  0  0  0  0  0  0
   -1.8635   -2.0384   -7.0999 H   0  0  0  0  0  0  0  0  0  0  0  0
    0.0225   -2.7647   -5.7460 H   0  0  0  0  0  0  0  0  0  0  0  0
    0.9493   -0.1399   -2.7208 H   0  0  0  0  0  0  0  0  0  0  0  0
  1  2  2  0  0  0  0
  2  3  1  0  0  0  0
  2  4  1  0  0  0  0
  3 31  1  0  0  0  0
  4  5  2  0  0  0  0
  4 30  1  0  0  0  0
  5  6  1  0  0  0  0
  5 32  1  0  0  0  0
  6  7  1  0  0  0  0
  6 33  1  0  0  0  0
  7  8  1  0  0  0  0
  7 30  2  0  0  0  0
  8  9  2  0  0  0  0
  8 34  1  0  0  0  0
  9 10  1  0  0  0  0
  9 11  1  0  0  0  0
 11 12  1  0  0  0  0
 11 29  2  0  0  0  0
 12 13  1  0  0  0  0
 12 28  2  0  0  0  0
 13 14  2  0  0  0  0
 13 35  1  0  0  0  0
 14 15  1  0  0  0  0
 14 36  1  0  0  0  0
 15 16  1  0  0  0  0
 15 27  2  0  0  0  0
 16 17  1  0  0  0  0
 17 18  1  0  0  0  0
 17 37  1  0  0  0  0
 17 38  1  0  0  0  0
 18 19  1  0  0  0  0
 18 39  1  0  0  0  0
 18 40  1  0  0  0  0
 19 20  1  0  0  0  0
 19 41  1  0  0  0  0
 19 42  1  0  0  0  0
 20 21  1  0  0  0  0
 20 25  1  0  0  0  0
 21 22  1  0  0  0  0
 21 43  1  0  0  0  0
 21 44  1  0  0  0  0
 22 23  1  0  0  0  0
 22 45  1  0  0  0  0
 22 46  1  0  0  0  0
 23 24  1  0  0  0  0
 24 25  1  0  0  0  0
 24 47  1  0  0  0  0
 24 48  1  0  0  0  0
 25 26  2  0  0  0  0
 27 28  1  0  0  0  0
 27 49  1  0  0  0  0
 28 50  1  0  0  0  0
 29 30  1  0  0  0  0
 29 51  1  0  0  0  0
M  END
