REMARK  Name = 
REMARK  6 active torsions:
REMARK  status: ('A' for Active; 'I' for Inactive)
REMARK    1  A    between atoms: C_1  and  C_2
REMARK    2  A    between atoms: C_2  and  O_3
REMARK    3  A    between atoms: O_3  and  C_4
REMARK    4  A    between atoms: C_11  and  C_12
REMARK    5  A    between atoms: N_18  and  C_19
REMARK    6  A    between atoms: C_19  and  C_20
REMARK                            x       y       z     vdW  Elec       q    Type
REMARK                         _______ _______ _______ _____ _____    ______ ____
ROOT
ATOM      1  C   UNL     1       2.423   0.152   2.576  0.00  0.00    +0.000 A 
ATOM      2  N   UNL     1       3.243   0.469   1.552  0.00  0.00    +0.000 NA
ATOM      3  C   UNL     1       4.584   0.605   1.729  0.00  0.00    +0.000 A 
ATOM      4  C   UNL     1       5.160   0.441   2.941  0.00  0.00    +0.000 A 
ATOM      5  C   UNL     1       4.370   0.112   4.044  0.00  0.00    +0.000 A 
ATOM      6  C   UNL     1       2.966  -0.037   3.864  0.00  0.00    +0.000 A 
ATOM      7  N   UNL     1       2.467  -0.346   5.061  0.00  0.00    +0.000 NA
ATOM      8  C   UNL     1       3.461  -0.391   5.935  0.00  0.00    +0.000 A 
ATOM      9  N   UNL     1       4.608  -0.121   5.345  0.00  0.00    +0.000 N 
ENDROOT
BRANCH   8  10
ATOM     10  C   UNL     1       3.301  -0.710   7.413  0.00  0.00    +0.000 A 
ATOM     11  N   UNL     1       2.773  -2.235   8.173  0.00  0.00    +0.000 NA
ATOM     12  O   UNL     1       2.982  -1.785   9.834  0.00  0.00    +0.000 OA
ATOM     13  N   UNL     1       3.441  -0.507   9.755  0.00  0.00    +0.000 NA
ATOM     14  C   UNL     1       3.619   0.065   8.520  0.00  0.00    +0.000 A 
ATOM     15  N   UNL     1       4.123   1.438   8.376  0.00  0.00    +0.000 N 
ATOM     16  H   UNL     1       4.349   1.988   9.205  0.00  0.00    +0.000 HD
ATOM     17  H   UNL     1       4.247   1.841   7.447  0.00  0.00    +0.000 HD
ENDBRANCH   8  10
BRANCH   9  18
ATOM     18  C   UNL     1       5.923  -0.081   6.000  0.00  0.00    +0.000 C 
ATOM     19  C   UNL     1       5.912   0.972   7.096  0.00  0.00    +0.000 C 
ENDBRANCH   9  18
BRANCH   1  20
ATOM     20  O   UNL     1       1.027   0.010   2.359  0.00  0.00    +0.000 OA
BRANCH  20  22
ATOM     21  C   UNL     1       1.060  -0.069  -0.041  0.00  0.00    +0.000 C 
ATOM     22  C   UNL     1       0.553  -0.719   1.236  0.00  0.00    +0.000 C 
ENDBRANCH  20  22
ENDBRANCH   1  20
TORSDOF 4
