
 OpenBabel03132514253D

 40 43  0  0  0  0  0  0  0  0999 V2000
    0.9369   -0.0692   -0.0350 C   0  0  0  0  0  0  0  0  0  0  0  0
    0.4302    0.7930   -1.1797 C   0  0  0  0  0  0  0  0  0  0  0  0
    0.9369    0.2328   -2.4987 C   0  0  0  0  0  0  0  0  0  0  0  0
   -1.0898    0.7930   -1.1797 C   0  0  0  0  0  0  0  0  0  0  0  0
   -1.8556    1.8719   -1.1819 N   0  0  0  0  0  0  0  0  0  0  0  0
   -3.1686    1.4918   -1.1861 N   0  0  0  0  0  0  0  0  0  0  0  0
   -3.1824    0.1623   -1.1887 C   0  0  0  0  0  0  0  0  0  0  0  0
   -4.2726   -0.7439   -1.2146 C   0  0  0  0  0  0  0  0  0  0  0  0
   -4.0091   -2.0784   -1.2173 C   0  0  0  0  0  0  0  0  0  0  0  0
   -2.6645   -2.5565   -1.1832 C   0  0  0  0  0  0  0  0  0  0  0  0
   -2.4004   -4.0533   -1.1706 C   0  0  0  0  0  0  0  0  0  0  0  0
   -1.7201   -4.7884   -0.1745 C   0  0  0  0  0  0  0  0  0  0  0  0
   -1.6770   -6.0738   -0.4832 N   0  0  0  0  0  0  0  0  0  0  0  0
   -2.3232   -6.1649   -1.6839 N   0  0  0  0  0  0  0  0  0  0  0  0
   -2.7668   -4.9499   -2.1074 C   0  0  0  0  0  0  0  0  0  0  0  0
   -3.5289   -4.6601   -3.3903 C   0  0  0  0  0  0  0  0  0  0  0  0
   -3.0052   -3.7916   -4.3379 C   0  0  0  0  0  0  0  0  0  0  0  0
   -3.7315   -3.5825   -5.5161 C   0  0  0  0  0  0  0  0  0  0  0  0
   -3.2200   -2.7477   -6.4457 F   0  0  0  0  0  0  0  0  0  0  0  0
   -4.9345   -4.2143   -5.7586 C   0  0  0  0  0  0  0  0  0  0  0  0
   -5.4630   -5.0879   -4.8167 C   0  0  0  0  0  0  0  0  0  0  0  0
   -4.7435   -5.2836   -3.6606 C   0  0  0  0  0  0  0  0  0  0  0  0
   -5.2239   -6.1307   -2.7181 F   0  0  0  0  0  0  0  0  0  0  0  0
   -1.6167   -1.6899   -1.1619 C   0  0  0  0  0  0  0  0  0  0  0  0
   -1.8880   -0.3317   -1.1773 N   0  0  0  0  0  0  0  0  0  0  0  0
    0.5802   -1.0706   -0.1577 H   0  0  0  0  0  0  0  0  0  0  0  0
    0.5802    0.3251    0.8935 H   0  0  0  0  0  0  0  0  0  0  0  0
    2.0069   -0.0692   -0.0350 H   0  0  0  0  0  0  0  0  0  0  0  0
    0.7869    1.7943   -1.0569 H   0  0  0  0  0  0  0  0  0  0  0  0
    0.5802   -0.7685   -2.6214 H   0  0  0  0  0  0  0  0  0  0  0  0
    0.5802    0.8397   -3.3045 H   0  0  0  0  0  0  0  0  0  0  0  0
    2.0069    0.2328   -2.4987 H   0  0  0  0  0  0  0  0  0  0  0  0
   -5.2808   -0.3858   -1.2316 H   0  0  0  0  0  0  0  0  0  0  0  0
   -4.8186   -2.7776   -1.2453 H   0  0  0  0  0  0  0  0  0  0  0  0
   -1.2965   -4.3624    0.7109 H   0  0  0  0  0  0  0  0  0  0  0  0
   -2.4564   -7.0353   -2.1987 H   0  0  0  0  0  0  0  0  0  0  0  0
   -2.0717   -3.2954   -4.1723 H   0  0  0  0  0  0  0  0  0  0  0  0
   -5.4601   -4.0312   -6.6725 H   0  0  0  0  0  0  0  0  0  0  0  0
   -6.3935   -5.5891   -4.9839 H   0  0  0  0  0  0  0  0  0  0  0  0
   -0.6088   -2.0480   -1.1340 H   0  0  0  0  0  0  0  0  0  0  0  0
  1  2  1  0  0  0  0
  1 26  1  0  0  0  0
  1 27  1  0  0  0  0
  1 28  1  0  0  0  0
  2  3  1  0  0  0  0
  2  4  1  0  0  0  0
  2 29  1  0  0  0  0
  3 30  1  0  0  0  0
  3 31  1  0  0  0  0
  3 32  1  0  0  0  0
  4  5  2  0  0  0  0
  4 25  1  0  0  0  0
  5  6  1  0  0  0  0
  6  7  2  0  0  0  0
  7  8  1  0  0  0  0
  7 25  1  0  0  0  0
  8  9  2  0  0  0  0
  8 33  1  0  0  0  0
  9 10  1  0  0  0  0
  9 34  1  0  0  0  0
 10 11  1  0  0  0  0
 10 24  2  0  0  0  0
 11 12  1  0  0  0  0
 11 15  2  0  0  0  0
 12 13  2  0  0  0  0
 12 35  1  0  0  0  0
 13 14  1  0  0  0  0
 14 15  1  0  0  0  0
 14 36  1  0  0  0  0
 15 16  1  0  0  0  0
 16 17  1  0  0  0  0
 16 22  2  0  0  0  0
 17 18  2  0  0  0  0
 17 37  1  0  0  0  0
 18 19  1  0  0  0  0
 18 20  1  0  0  0  0
 20 21  2  0  0  0  0
 20 38  1  0  0  0  0
 21 22  1  0  0  0  0
 21 39  1  0  0  0  0
 22 23  1  0  0  0  0
 24 25  1  0  0  0  0
 24 40  1  0  0  0  0
M  END
