REMARK  Name = 
REMARK  7 active torsions:
REMARK  status: ('A' for Active; 'I' for Inactive)
REMARK    1  A    between atoms: C_1  and  C_2
REMARK    2  A    between atoms: C_6  and  C_7
REMARK    3  A    between atoms: C_7  and  O_8
REMARK    4  A    between atoms: O_8  and  C_9
REMARK    5  A    between atoms: C_12  and  C_13
REMARK    6  A    between atoms: C_16  and  C_17
REMARK    7  A    between atoms: C_17  and  O_19
REMARK                            x       y       z     vdW  Elec       q    Type
REMARK                         _______ _______ _______ _____ _____    ______ ____
ROOT
ATOM      1  C   UNL     1       4.377   3.447  -3.984  0.00  0.00    +0.000 A 
ATOM      2  C   UNL     1       5.501   4.252  -4.057  0.00  0.00    +0.000 A 
ATOM      3  C   UNL     1       6.512   3.911  -3.127  0.00  0.00    +0.000 A 
ATOM      4  C   UNL     1       6.320   3.168  -2.051  0.00  0.00    +0.000 A 
ATOM      5  C   UNL     1       5.158   2.449  -2.008  0.00  0.00    +0.000 A 
ATOM      6  C   UNL     1       4.178   2.631  -2.955  0.00  0.00    +0.000 A 
ENDROOT
BRANCH   4   7
ATOM      7  C   UNL     1       7.337   3.115  -0.923  0.00  0.00    +0.000 A 
ATOM      8  C   UNL     1       7.666   4.281  -0.251  0.00  0.00    +0.000 A 
ATOM      9  C   UNL     1       8.818   4.167   0.564  0.00  0.00    +0.000 A 
ATOM     10  C   UNL     1       9.463   5.383   0.986  0.00  0.00    +0.000 A 
ATOM     11  C   UNL     1      10.639   5.324   1.816  0.00  0.00    +0.000 A 
ATOM     12  N   UNL     1      10.270   2.962   2.001  0.00  0.00    +0.000 N 
ATOM     13  C   UNL     1       9.342   3.022   0.964  0.00  0.00    +0.000 A 
ATOM     14  C   UNL     1       8.924   1.899   0.305  0.00  0.00    +0.000 A 
ATOM     15  C   UNL     1       7.893   1.954  -0.601  0.00  0.00    +0.000 A 
ATOM     16 CL   UNL     1       7.296   0.453  -1.350  0.00  0.00    +0.000 Cl
ATOM     17  H   UNL     1      10.657   2.063   2.288  0.00  0.00    +0.000 HD
BRANCH  10  18
ATOM     18  C   UNL     1       8.904   6.729   0.555  0.00  0.00    +0.000 C 
ATOM     19  O   UNL     1       9.474   7.802   0.928  0.00  0.00    +0.000 OA
BRANCH  18  20
ATOM     20  O   UNL     1       7.745   6.787  -0.263  0.00  0.00    +0.000 OA
ATOM     21  H   UNL     1       7.377   7.673  -0.546  0.00  0.00    +0.000 HD
ENDBRANCH  18  20
ENDBRANCH  10  18
ENDBRANCH   4   7
BRANCH   1  22
ATOM     22  O   UNL     1       3.417   3.494  -5.030  0.00  0.00    +0.000 OA
BRANCH  22  23
ATOM     23  C   UNL     1       2.033   3.553  -4.721  0.00  0.00    +0.000 C 
BRANCH  23  29
ATOM     24  C   UNL     1       1.034   0.077   0.053  0.00  0.00    +0.000 C 
ATOM     25  C   UNL     1       0.527   0.151  -1.378  0.00  0.00    +0.000 C 
ATOM     26  O   UNL     1      -0.203  -0.779  -1.842  0.00  0.00    +0.000 OA
ATOM     27  N   UNL     1       0.882   1.299  -2.225  0.00  0.00    +0.000 N 
ATOM     28  C   UNL     1       0.232   2.159  -3.322  0.00  0.00    +0.000 C 
ATOM     29  C   UNL     1       1.640   2.324  -3.918  0.00  0.00    +0.000 C 
ATOM     30  C   UNL     1       2.186   2.070  -2.503  0.00  0.00    +0.000 C 
ENDBRANCH  23  29
ENDBRANCH  22  23
ENDBRANCH   1  22
TORSDOF 6
