
 OpenBabel03132514253D

 70 75  0  0  0  0  0  0  0  0999 V2000
    1.0536    0.0206   -0.0819 C   0  0  0  0  0  0  0  0  0  0  0  0
    0.5469   -1.3440   -0.5194 C   0  0  0  0  0  0  0  0  0  0  0  0
    1.0536   -2.4053    0.4436 C   0  0  0  0  0  0  0  0  0  0  0  0
   -0.9231   -1.3440   -0.5194 N   0  0  0  0  0  0  0  0  0  0  0  0
   -1.5098   -2.9241   -1.0261 S   0  0  0  0  0  0  0  0  0  0  0  0
   -0.9064   -4.1879    0.1207 C   0  0  0  0  0  0  0  0  0  0  0  0
   -3.0402   -2.9241   -1.0261 O   0  0  0  0  0  0  0  0  0  0  0  0
   -0.9847   -3.2385   -2.4775 N   0  0  0  0  0  0  0  0  0  0  0  0
   -1.3398   -4.5077   -3.1288 C   0  0  0  0  0  0  0  0  0  0  0  0
   -0.4174   -5.3467   -3.7319 C   0  0  0  0  0  0  0  0  0  0  0  0
   -1.0003   -6.4165   -4.4516 C   0  0  0  0  0  0  0  0  0  0  0  0
   -2.2449   -6.8311   -4.2998 C   0  0  0  0  0  0  0  0  0  0  0  0
   -2.7123   -8.1748   -4.8349 C   0  0  0  0  0  0  0  0  0  0  0  0
   -2.2077   -9.3865   -4.3926 C   0  0  0  0  0  0  0  0  0  0  0  0
   -2.6168  -10.4959   -5.1697 C   0  0  0  0  0  0  0  0  0  0  0  0
   -3.6436  -10.4908   -6.0001 C   0  0  0  0  0  0  0  0  0  0  0  0
   -4.2413  -11.7787   -6.5427 C   0  0  0  0  0  0  0  0  0  0  0  0
   -4.6601  -12.7013   -5.6048 N   0  0  0  0  0  0  0  0  0  0  0  0
   -5.1367  -13.9467   -6.0251 C   0  0  0  0  0  0  0  0  0  0  0  0
   -5.6447  -15.1251   -5.3245 N   0  0  0  0  0  0  0  0  0  0  0  0
   -5.9562  -16.0179   -6.2180 C   0  0  0  0  0  0  0  0  0  0  0  0
   -6.4859  -17.3039   -5.9314 O   0  0  0  0  0  0  0  0  0  0  0  0
   -6.7119  -17.6948   -4.5851 C   0  0  0  0  0  0  0  0  0  0  0  0
   -7.5869  -16.8333   -4.0417 C   0  0  0  0  0  0  0  0  0  0  0  0
   -6.8711  -15.7002   -3.4760 O   0  0  0  0  0  0  0  0  0  0  0  0
   -5.4376  -16.1870   -3.1900 C   0  0  0  0  0  0  0  0  0  0  0  0
   -5.2683  -16.3900   -1.6987 C   0  0  0  0  0  0  0  0  0  0  0  0
   -5.9574  -15.3856   -0.9689 O   0  0  0  0  0  0  0  0  0  0  0  0
   -5.7594  -17.6260   -1.4074 C   0  0  0  0  0  0  0  0  0  0  0  0
   -5.5574  -18.5194   -2.5379 O   0  0  0  0  0  0  0  0  0  0  0  0
   -5.4273  -17.6236   -3.7844 C   0  0  0  0  0  0  0  0  0  0  0  0
   -5.6940  -15.5284   -7.5011 N   0  0  0  0  0  0  0  0  0  0  0  0
   -5.1867  -14.2493   -7.3973 C   0  0  0  0  0  0  0  0  0  0  0  0
   -4.7617  -13.3075   -8.3273 C   0  0  0  0  0  0  0  0  0  0  0  0
   -4.2987  -12.0821   -7.9032 C   0  0  0  0  0  0  0  0  0  0  0  0
   -3.7693  -10.8757   -9.1001 Cl  0  0  0  0  0  0  0  0  0  0  0  0
   -4.1403   -9.2646   -6.3455 C   0  0  0  0  0  0  0  0  0  0  0  0
   -3.6974   -8.1221   -5.7237 C   0  0  0  0  0  0  0  0  0  0  0  0
   -3.0905   -5.9866   -3.6355 C   0  0  0  0  0  0  0  0  0  0  0  0
   -2.6170   -4.8540   -3.0182 C   0  0  0  0  0  0  0  0  0  0  0  0
    0.6969    0.2342    0.9040 H   0  0  0  0  0  0  0  0  0  0  0  0
    0.6969    0.7677   -0.7598 H   0  0  0  0  0  0  0  0  0  0  0  0
    2.1236    0.0206   -0.0819 H   0  0  0  0  0  0  0  0  0  0  0  0
    0.9036   -1.5576   -1.5054 H   0  0  0  0  0  0  0  0  0  0  0  0
    0.6969   -2.1917    1.4295 H   0  0  0  0  0  0  0  0  0  0  0  0
    0.6969   -3.3659    0.1356 H   0  0  0  0  0  0  0  0  0  0  0  0
    2.1236   -2.4053    0.4436 H   0  0  0  0  0  0  0  0  0  0  0  0
   -1.2631   -1.1404    0.4204 H   0  0  0  0  0  0  0  0  0  0  0  0
   -1.2631   -3.9743    1.1066 H   0  0  0  0  0  0  0  0  0  0  0  0
   -1.2631   -5.1485   -0.1873 H   0  0  0  0  0  0  0  0  0  0  0  0
    0.1636   -4.1879    0.1207 H   0  0  0  0  0  0  0  0  0  0  0  0
    0.6399   -5.1992   -3.6602 H   0  0  0  0  0  0  0  0  0  0  0  0
   -0.3901   -6.9250   -5.1686 H   0  0  0  0  0  0  0  0  0  0  0  0
   -1.5666   -9.4756   -3.5405 H   0  0  0  0  0  0  0  0  0  0  0  0
   -2.0551  -11.4020   -5.0782 H   0  0  0  0  0  0  0  0  0  0  0  0
   -7.0818  -18.6987   -4.5695 H   0  0  0  0  0  0  0  0  0  0  0  0
   -8.2594  -16.4863   -4.7982 H   0  0  0  0  0  0  0  0  0  0  0  0
   -8.1392  -17.3268   -3.2695 H   0  0  0  0  0  0  0  0  0  0  0  0
   -4.6990  -15.5120   -3.5691 H   0  0  0  0  0  0  0  0  0  0  0  0
   -4.2326  -16.3346   -1.4355 H   0  0  0  0  0  0  0  0  0  0  0  0
   -6.9305  -15.4160   -1.1973 H   0  0  0  0  0  0  0  0  0  0  0  0
   -6.8067  -17.5491   -1.2025 H   0  0  0  0  0  0  0  0  0  0  0  0
   -5.2505  -18.0170   -0.5512 H   0  0  0  0  0  0  0  0  0  0  0  0
   -4.5809  -17.8901   -4.3822 H   0  0  0  0  0  0  0  0  0  0  0  0
   -5.8520  -16.0345   -8.3724 H   0  0  0  0  0  0  0  0  0  0  0  0
   -4.7943  -13.5347   -9.3724 H   0  0  0  0  0  0  0  0  0  0  0  0
   -4.8845   -9.1936   -7.1110 H   0  0  0  0  0  0  0  0  0  0  0  0
   -4.1505   -7.1815   -5.9579 H   0  0  0  0  0  0  0  0  0  0  0  0
   -4.1359   -6.2109   -3.5958 H   0  0  0  0  0  0  0  0  0  0  0  0
   -3.2834   -4.2456   -2.4433 H   0  0  0  0  0  0  0  0  0  0  0  0
  1  2  1  0  0  0  0
  1 41  1  0  0  0  0
  1 42  1  0  0  0  0
  1 43  1  0  0  0  0
  2  3  1  0  0  0  0
  2  4  1  0  0  0  0
  2 44  1  0  0  0  0
  3 45  1  0  0  0  0
  3 46  1  0  0  0  0
  3 47  1  0  0  0  0
  4  5  1  0  0  0  0
  4 48  1  0  0  0  0
  5  6  1  0  0  0  0
  5  7  2  0  0  0  0
  5  8  2  0  0  0  0
  6 49  1  0  0  0  0
  6 50  1  0  0  0  0
  6 51  1  0  0  0  0
  8  9  1  0  0  0  0
  9 10  1  0  0  0  0
  9 40  2  0  0  0  0
 10 11  2  0  0  0  0
 10 52  1  0  0  0  0
 11 12  1  0  0  0  0
 11 53  1  0  0  0  0
 12 13  1  0  0  0  0
 12 39  2  0  0  0  0
 13 14  1  0  0  0  0
 13 38  2  0  0  0  0
 14 15  2  0  0  0  0
 14 54  1  0  0  0  0
 15 16  1  0  0  0  0
 15 55  1  0  0  0  0
 16 17  1  0  0  0  0
 16 37  2  0  0  0  0
 17 18  1  0  0  0  0
 17 35  2  0  0  0  0
 18 19  2  0  0  0  0
 19 20  1  0  0  0  0
 19 33  1  0  0  0  0
 20 21  2  0  0  0  0
 21 22  1  0  0  0  0
 21 32  1  0  0  0  0
 22 23  1  0  0  0  0
 23 24  1  0  0  0  0
 23 31  1  0  0  0  0
 23 56  1  0  0  0  0
 24 25  1  0  0  0  0
 24 57  1  0  0  0  0
 24 58  1  0  0  0  0
 25 26  1  0  0  0  0
 26 27  1  0  0  0  0
 26 31  1  0  0  0  0
 26 59  1  0  0  0  0
 27 28  1  0  0  0  0
 27 29  1  0  0  0  0
 27 60  1  0  0  0  0
 28 61  1  0  0  0  0
 29 30  1  0  0  0  0
 29 62  1  0  0  0  0
 29 63  1  0  0  0  0
 30 31  1  0  0  0  0
 31 64  1  0  0  0  0
 32 33  1  0  0  0  0
 32 65  1  0  0  0  0
 33 34  2  0  0  0  0
 34 35  1  0  0  0  0
 34 66  1  0  0  0  0
 35 36  1  0  0  0  0
 37 38  1  0  0  0  0
 37 67  1  0  0  0  0
 38 68  1  0  0  0  0
 39 40  1  0  0  0  0
 39 69  1  0  0  0  0
 40 70  1  0  0  0  0
M  END
