REMARK  Name = 
REMARK  10 active torsions:
REMARK  status: ('A' for Active; 'I' for Inactive)
REMARK    1  A    between atoms: C_1  and  O_2
REMARK    2  A    between atoms: O_2  and  C_3
REMARK    3  A    between atoms: C_5  and  C_6
REMARK    4  A    between atoms: C_16  and  C_17
REMARK    5  A    between atoms: C_17  and  C_18
REMARK    6  A    between atoms: C_17  and  C_19
REMARK    7  A    between atoms: C_17  and  C_20
REMARK    8  A    between atoms: N_22  and  C_23
REMARK    9  A    between atoms: C_26  and  N_27
REMARK   10  A    between atoms: C_42  and  N_43
REMARK                            x       y       z     vdW  Elec       q    Type
REMARK                         _______ _______ _______ _____ _____    ______ ____
ROOT
ATOM      1  C   UNL     1      -1.018   5.362   1.374  0.00  0.00    +0.000 A 
ATOM      2  C   UNL     1      -1.013   6.686   0.942  0.00  0.00    +0.000 A 
ATOM      3  C   UNL     1      -2.079   7.533   1.256  0.00  0.00    +0.000 A 
ATOM      4  C   UNL     1      -3.131   7.054   2.006  0.00  0.00    +0.000 A 
ATOM      5  C   UNL     1      -3.167   5.718   2.432  0.00  0.00    +0.000 A 
ATOM      6  C   UNL     1      -2.089   4.882   2.107  0.00  0.00    +0.000 A 
ATOM      7  N   UNL     1      -4.210   5.252   3.149  0.00  0.00    +0.000 N 
ATOM      8  C   UNL     1      -4.225   3.853   3.599  0.00  0.00    +0.000 A 
ATOM      9  C   UNL     1      -5.238   3.009   3.182  0.00  0.00    +0.000 A 
ATOM     10  C   UNL     1      -5.241   1.676   3.587  0.00  0.00    +0.000 A 
ATOM     11  C   UNL     1      -4.230   1.193   4.422  0.00  0.00    +0.000 A 
ATOM     12  C   UNL     1      -3.237   2.046   4.853  0.00  0.00    +0.000 A 
ATOM     13  C   UNL     1      -3.203   3.386   4.439  0.00  0.00    +0.000 A 
ATOM     14  N   UNL     1      -2.217   4.208   4.849  0.00  0.00    +0.000 N 
ATOM     15  C   UNL     1      -4.270   7.989   2.379  0.00  0.00    +0.000 C 
ATOM     16  O   UNL     1      -5.245   7.558   3.071  0.00  0.00    +0.000 OA
ATOM     17  H   UNL     1      -4.988   5.871   3.378  0.00  0.00    +0.000 HD
ATOM     18  H   UNL     1      -1.480   3.856   5.459  0.00  0.00    +0.000 HD
ENDROOT
BRANCH   1  21
ATOM     19  C   UNL     1       0.942   2.409   0.020  0.00  0.00    +0.000 A 
ATOM     20  C   UNL     1      -0.105   3.266   0.310  0.00  0.00    +0.000 A 
ATOM     21  C   UNL     1       0.132   4.425   1.044  0.00  0.00    +0.000 A 
ATOM     22  C   UNL     1       1.425   4.730   1.479  0.00  0.00    +0.000 A 
ATOM     23  C   UNL     1       2.466   3.884   1.165  0.00  0.00    +0.000 A 
ATOM     24  C   UNL     1       2.246   2.700   0.447  0.00  0.00    +0.000 A 
BRANCH  24  25
ATOM     25  N   UNL     1       3.267   1.867   0.162  0.00  0.00    +0.000 N 
ATOM     26  H   UNL     1       3.096   1.014  -0.370  0.00  0.00    +0.000 HD
ATOM     27  H   UNL     1       4.210   2.090   0.479  0.00  0.00    +0.000 HD
ENDBRANCH  24  25
BRANCH  19  29
ATOM     28  C   UNL     1       1.072  -0.046  -0.052  0.00  0.00    +0.000 C 
ATOM     29  O   UNL     1       0.599   1.177  -0.597  0.00  0.00    +0.000 OA
ENDBRANCH  19  29
ENDBRANCH   1  21
BRANCH  11  30
ATOM     30  C   UNL     1      -4.225  -0.265   4.852  0.00  0.00    +0.000 C 
ATOM     31  C   UNL     1      -5.505  -0.572   5.612  0.00  0.00    +0.000 C 
ATOM     32  C   UNL     1      -4.140  -1.155   3.623  0.00  0.00    +0.000 C 
BRANCH  30  33
ATOM     33  C   UNL     1      -3.027  -0.524   5.750  0.00  0.00    +0.000 C 
ATOM     34  O   UNL     1      -2.223   0.421   6.025  0.00  0.00    +0.000 OA
ATOM     35  N   UNL     1      -2.798  -1.868   6.301  0.00  0.00    +0.000 N 
ATOM     36  H   UNL     1      -2.549  -1.999   7.281  0.00  0.00    +0.000 HD
BRANCH  35  37
ATOM     37  C   UNL     1      -2.928  -2.921   5.470  0.00  0.00    +0.000 A 
ATOM     38  C   UNL     1      -2.837  -4.234   5.955  0.00  0.00    +0.000 A 
ATOM     39  C   UNL     1      -2.967  -5.314   5.101  0.00  0.00    +0.000 A 
ATOM     40  C   UNL     1      -3.203  -5.101   3.745  0.00  0.00    +0.000 A 
ATOM     41  C   UNL     1      -3.298  -3.800   3.244  0.00  0.00    +0.000 A 
ATOM     42  C   UNL     1      -3.143  -2.728   4.097  0.00  0.00    +0.000 A 
BRANCH  40  43
ATOM     43  N   UNL     1      -3.354  -6.248   2.838  0.00  0.00    +0.000 N 
ATOM     44  C   UNL     1      -2.495  -6.530   1.673  0.00  0.00    +0.000 C 
ATOM     45  C   UNL     1      -3.352  -6.623   0.430  0.00  0.00    +0.000 C 
ATOM     46  O   UNL     1      -4.353  -7.630   0.572  0.00  0.00    +0.000 OA
ATOM     47  C   UNL     1      -5.197  -7.323   1.683  0.00  0.00    +0.000 C 
ATOM     48  C   UNL     1      -4.404  -7.277   2.975  0.00  0.00    +0.000 C 
ENDBRANCH  40  43
ENDBRANCH  35  37
ENDBRANCH  30  33
ENDBRANCH  11  30
TORSDOF 7
