
 OpenBabel03132514253D

 52 53  0  0  0  0  0  0  0  0999 V2000
    1.0663   -0.0485   -0.0570 O   0  0  0  0  0  0  0  0  0  0  0  0
    2.3372   -0.0485   -0.0570 C   0  0  0  0  0  0  0  0  0  0  0  0
    3.0972   -0.7125   -1.1936 C   0  0  0  0  0  0  0  0  0  0  0  0
    4.4576   -0.7125   -1.1936 C   0  0  0  0  0  0  0  0  0  0  0  0
    5.2176   -1.3766   -2.3302 C   0  0  0  0  0  0  0  0  0  0  0  0
    4.7812   -1.1228   -3.6350 C   0  0  0  0  0  0  0  0  0  0  0  0
    5.5368   -1.6442   -4.6989 C   0  0  0  0  0  0  0  0  0  0  0  0
    6.6934   -2.3715   -4.4723 C   0  0  0  0  0  0  0  0  0  0  0  0
    7.4430   -2.8992   -5.4856 O   0  0  0  0  0  0  0  0  0  0  0  0
    7.1160   -2.6093   -3.1618 C   0  0  0  0  0  0  0  0  0  0  0  0
    8.2649   -3.2828   -2.8882 O   0  0  0  0  0  0  0  0  0  0  0  0
    6.3674   -2.1128   -2.1093 C   0  0  0  0  0  0  0  0  0  0  0  0
    3.0472    0.5719    1.0048 O   0  0  0  0  0  0  0  0  0  0  0  0
    4.4672    0.5719    1.0048 C   0  0  0  0  0  0  0  0  0  0  0  0
    4.9739   -0.8611    1.0122 C   0  0  0  0  0  0  0  0  0  0  0  0
    5.7046   -1.2817    0.0612 O   0  0  0  0  0  0  0  0  0  0  0  0
    4.6309   -1.7300    2.0817 O   0  0  0  0  0  0  0  0  0  0  0  0
    4.9739    1.2820   -0.2400 C   0  0  0  0  0  0  0  0  0  0  0  0
    4.5006    2.6208   -0.2469 O   0  0  0  0  0  0  0  0  0  0  0  0
    3.1045    2.8803   -0.2482 C   0  0  0  0  0  0  0  0  0  0  0  0
    2.2786    1.9143   -0.2432 O   0  0  0  0  0  0  0  0  0  0  0  0
    2.5978    4.3133   -0.2556 C   0  0  0  0  0  0  0  0  0  0  0  0
    3.4818    5.3473   -0.2609 C   0  0  0  0  0  0  0  0  0  0  0  0
    2.9752    6.7804   -0.2683 C   0  0  0  0  0  0  0  0  0  0  0  0
    1.9341    7.1550    0.5879 C   0  0  0  0  0  0  0  0  0  0  0  0
    1.4878    8.4868    0.5442 C   0  0  0  0  0  0  0  0  0  0  0  0
    2.0703    9.4140   -0.3037 C   0  0  0  0  0  0  0  0  0  0  0  0
    1.6515   10.7128   -0.3755 O   0  0  0  0  0  0  0  0  0  0  0  0
    3.1130    9.0217   -1.1472 C   0  0  0  0  0  0  0  0  0  0  0  0
    3.7436    9.9030   -1.9682 O   0  0  0  0  0  0  0  0  0  0  0  0
    3.5460    7.7077   -1.1210 C   0  0  0  0  0  0  0  0  0  0  0  0
    6.4939    1.2820   -0.2400 C   0  0  0  0  0  0  0  0  0  0  0  0
    7.1294    0.7268   -1.1903 O   0  0  0  0  0  0  0  0  0  0  0  0
    7.2039    1.9024    0.8219 O   0  0  0  0  0  0  0  0  0  0  0  0
    2.5622   -1.1800   -1.9937 H   0  0  0  0  0  0  0  0  0  0  0  0
    4.9926   -0.2450   -0.3935 H   0  0  0  0  0  0  0  0  0  0  0  0
    3.8972   -0.5481   -3.8176 H   0  0  0  0  0  0  0  0  0  0  0  0
    5.2119   -1.4759   -5.7044 H   0  0  0  0  0  0  0  0  0  0  0  0
    7.1729   -2.7509   -6.4370 H   0  0  0  0  0  0  0  0  0  0  0  0
    8.8197   -3.6492   -3.6352 H   0  0  0  0  0  0  0  0  0  0  0  0
    6.6842   -2.3021   -1.1049 H   0  0  0  0  0  0  0  0  0  0  0  0
    4.8239    1.0808    1.8758 H   0  0  0  0  0  0  0  0  0  0  0  0
    4.9642   -2.6728    2.0865 H   0  0  0  0  0  0  0  0  0  0  0  0
    4.6172    0.7731   -1.1110 H   0  0  0  0  0  0  0  0  0  0  0  0
    1.5458    4.5088   -0.2566 H   0  0  0  0  0  0  0  0  0  0  0  0
    4.5338    5.1518   -0.2599 H   0  0  0  0  0  0  0  0  0  0  0  0
    1.4903    6.4476    1.2569 H   0  0  0  0  0  0  0  0  0  0  0  0
    0.6818    8.7906    1.1789 H   0  0  0  0  0  0  0  0  0  0  0  0
    0.9078   11.0316    0.2121 H   0  0  0  0  0  0  0  0  0  0  0  0
    3.4454   10.8570   -2.0013 H   0  0  0  0  0  0  0  0  0  0  0  0
    4.3377    7.4031   -1.7731 H   0  0  0  0  0  0  0  0  0  0  0  0
    8.2039    1.9024    0.8219 H   0  0  0  0  0  0  0  0  0  0  0  0
  1  2  2  0  0  0  0
  2  3  1  0  0  0  0
  2 13  1  0  0  0  0
  3  4  2  0  0  0  0
  3 35  1  0  0  0  0
  4  5  1  0  0  0  0
  4 36  1  0  0  0  0
  5  6  1  0  0  0  0
  5 12  2  0  0  0  0
  6  7  2  0  0  0  0
  6 37  1  0  0  0  0
  7  8  1  0  0  0  0
  7 38  1  0  0  0  0
  8  9  1  0  0  0  0
  8 10  2  0  0  0  0
  9 39  1  0  0  0  0
 10 11  1  0  0  0  0
 10 12  1  0  0  0  0
 11 40  1  0  0  0  0
 12 41  1  0  0  0  0
 13 14  1  0  0  0  0
 14 15  1  0  0  0  0
 14 18  1  0  0  0  0
 14 42  1  0  0  0  0
 15 16  2  0  0  0  0
 15 17  1  0  0  0  0
 17 43  1  0  0  0  0
 18 19  1  0  0  0  0
 18 32  1  0  0  0  0
 18 44  1  0  0  0  0
 19 20  1  0  0  0  0
 20 21  2  0  0  0  0
 20 22  1  0  0  0  0
 22 23  2  0  0  0  0
 22 45  1  0  0  0  0
 23 24  1  0  0  0  0
 23 46  1  0  0  0  0
 24 25  1  0  0  0  0
 24 31  2  0  0  0  0
 25 26  2  0  0  0  0
 25 47  1  0  0  0  0
 26 27  1  0  0  0  0
 26 48  1  0  0  0  0
 27 28  1  0  0  0  0
 27 29  2  0  0  0  0
 28 49  1  0  0  0  0
 29 30  1  0  0  0  0
 29 31  1  0  0  0  0
 30 50  1  0  0  0  0
 31 51  1  0  0  0  0
 32 33  2  0  0  0  0
 32 34  1  0  0  0  0
 34 52  1  0  0  0  0
M  END
