
 OpenBabel03132514253D

 43 44  0  0  0  0  0  0  0  0999 V2000
    0.9330    0.0661   -0.0338 C   0  0  0  0  0  0  0  0  0  0  0  0
    0.4597   -0.2580    1.2651 O   0  0  0  0  0  0  0  0  0  0  0  0
    0.5061   -1.5426    1.6852 C   0  0  0  0  0  0  0  0  0  0  0  0
    0.1059   -1.8033    2.9740 C   0  0  0  0  0  0  0  0  0  0  0  0
    0.1064   -3.1002    3.4499 C   0  0  0  0  0  0  0  0  0  0  0  0
    0.5239   -4.1330    2.6458 C   0  0  0  0  0  0  0  0  0  0  0  0
    0.5094   -5.5582    3.1740 C   0  0  0  0  0  0  0  0  0  0  0  0
    0.0835   -5.8097    4.4413 C   0  0  0  0  0  0  0  0  0  0  0  0
    0.0691   -7.2349    4.9694 C   0  0  0  0  0  0  0  0  0  0  0  0
    1.1724   -8.0654    4.7466 C   0  0  0  0  0  0  0  0  0  0  0  0
    1.1160   -9.3777    5.2598 C   0  0  0  0  0  0  0  0  0  0  0  0
    2.1450  -10.2429    5.1130 O   0  0  0  0  0  0  0  0  0  0  0  0
    3.3299   -9.8305    4.4478 C   0  0  0  0  0  0  0  0  0  0  0  0
   -0.0058   -9.8313    5.9118 C   0  0  0  0  0  0  0  0  0  0  0  0
   -0.0625  -11.1716    6.3773 O   0  0  0  0  0  0  0  0  0  0  0  0
    1.0394  -12.0427    6.1691 C   0  0  0  0  0  0  0  0  0  0  0  0
   -1.0782   -8.9843    6.1147 C   0  0  0  0  0  0  0  0  0  0  0  0
   -2.2272   -9.4516    6.8060 O   0  0  0  0  0  0  0  0  0  0  0  0
   -3.3311   -8.5836    7.0162 C   0  0  0  0  0  0  0  0  0  0  0  0
   -1.0377   -7.6919    5.6506 C   0  0  0  0  0  0  0  0  0  0  0  0
    0.9555   -3.8805    1.3622 C   0  0  0  0  0  0  0  0  0  0  0  0
    0.9678   -2.5795    0.8483 C   0  0  0  0  0  0  0  0  0  0  0  0
    1.4284   -2.3127   -0.4681 O   0  0  0  0  0  0  0  0  0  0  0  0
    0.5764    1.0359   -0.3117 H   0  0  0  0  0  0  0  0  0  0  0  0
    0.5764   -0.6594   -0.7347 H   0  0  0  0  0  0  0  0  0  0  0  0
    2.0030    0.0661   -0.0338 H   0  0  0  0  0  0  0  0  0  0  0  0
   -0.2064   -1.0009    3.6094 H   0  0  0  0  0  0  0  0  0  0  0  0
   -0.2196   -3.3012    4.4490 H   0  0  0  0  0  0  0  0  0  0  0  0
    0.8342   -6.3637    2.5490 H   0  0  0  0  0  0  0  0  0  0  0  0
   -0.2412   -5.0042    5.0663 H   0  0  0  0  0  0  0  0  0  0  0  0
    2.0280   -7.7176    4.2064 H   0  0  0  0  0  0  0  0  0  0  0  0
    3.0932   -9.5381    3.4462 H   0  0  0  0  0  0  0  0  0  0  0  0
    3.7614   -9.0015    4.9689 H   0  0  0  0  0  0  0  0  0  0  0  0
    4.0279  -10.6413    4.4272 H   0  0  0  0  0  0  0  0  0  0  0  0
    1.2229  -12.1411    5.1195 H   0  0  0  0  0  0  0  0  0  0  0  0
    1.9079  -11.6397    6.6468 H   0  0  0  0  0  0  0  0  0  0  0  0
    0.8177  -13.0038    6.5840 H   0  0  0  0  0  0  0  0  0  0  0  0
   -3.0142   -7.7350    7.5857 H   0  0  0  0  0  0  0  0  0  0  0  0
   -3.7129   -8.2569    6.0715 H   0  0  0  0  0  0  0  0  0  0  0  0
   -4.0982   -9.1049    7.5498 H   0  0  0  0  0  0  0  0  0  0  0  0
   -1.8682   -7.0384    5.8186 H   0  0  0  0  0  0  0  0  0  0  0  0
    1.2865   -4.6922    0.7486 H   0  0  0  0  0  0  0  0  0  0  0  0
    1.4293   -1.3756   -0.8172 H   0  0  0  0  0  0  0  0  0  0  0  0
  1  2  1  0  0  0  0
  1 24  1  0  0  0  0
  1 25  1  0  0  0  0
  1 26  1  0  0  0  0
  2  3  1  0  0  0  0
  3  4  1  0  0  0  0
  3 22  2  0  0  0  0
  4  5  2  0  0  0  0
  4 27  1  0  0  0  0
  5  6  1  0  0  0  0
  5 28  1  0  0  0  0
  6  7  1  0  0  0  0
  6 21  2  0  0  0  0
  7  8  2  0  0  0  0
  7 29  1  0  0  0  0
  8  9  1  0  0  0  0
  8 30  1  0  0  0  0
  9 10  1  0  0  0  0
  9 20  2  0  0  0  0
 10 11  2  0  0  0  0
 10 31  1  0  0  0  0
 11 12  1  0  0  0  0
 11 14  1  0  0  0  0
 12 13  1  0  0  0  0
 13 32  1  0  0  0  0
 13 33  1  0  0  0  0
 13 34  1  0  0  0  0
 14 15  1  0  0  0  0
 14 17  2  0  0  0  0
 15 16  1  0  0  0  0
 16 35  1  0  0  0  0
 16 36  1  0  0  0  0
 16 37  1  0  0  0  0
 17 18  1  0  0  0  0
 17 20  1  0  0  0  0
 18 19  1  0  0  0  0
 19 38  1  0  0  0  0
 19 39  1  0  0  0  0
 19 40  1  0  0  0  0
 20 41  1  0  0  0  0
 21 22  1  0  0  0  0
 21 42  1  0  0  0  0
 22 23  1  0  0  0  0
 23 43  1  0  0  0  0
M  END
