REMARK  Name = 
REMARK  11 active torsions:
REMARK  status: ('A' for Active; 'I' for Inactive)
REMARK    1  A    between atoms: C_1  and  O_2
REMARK    2  A    between atoms: O_2  and  C_3
REMARK    3  A    between atoms: C_6  and  C_7
REMARK    4  A    between atoms: C_8  and  C_9
REMARK    5  A    between atoms: C_11  and  O_12
REMARK    6  A    between atoms: O_12  and  C_13
REMARK    7  A    between atoms: C_14  and  O_15
REMARK    8  A    between atoms: O_15  and  C_16
REMARK    9  A    between atoms: C_17  and  O_18
REMARK   10  A    between atoms: O_18  and  C_19
REMARK   11  A    between atoms: C_22  and  O_23
REMARK                            x       y       z     vdW  Elec       q    Type
REMARK                         _______ _______ _______ _____ _____    ______ ____
ROOT
ATOM      1  C   UNL     1       0.509  -5.558   3.174  0.00  0.00    +0.000 C 
ATOM      2  C   UNL     1       0.084  -5.810   4.441  0.00  0.00    +0.000 C 
ENDROOT
BRANCH   1   6
ATOM      3  C   UNL     1       0.506  -1.543   1.685  0.00  0.00    +0.000 A 
ATOM      4  C   UNL     1       0.106  -1.803   2.974  0.00  0.00    +0.000 A 
ATOM      5  C   UNL     1       0.106  -3.100   3.450  0.00  0.00    +0.000 A 
ATOM      6  C   UNL     1       0.524  -4.133   2.646  0.00  0.00    +0.000 A 
ATOM      7  C   UNL     1       0.956  -3.881   1.362  0.00  0.00    +0.000 A 
ATOM      8  C   UNL     1       0.968  -2.579   0.848  0.00  0.00    +0.000 A 
BRANCH   3  10
ATOM      9  C   UNL     1       0.933   0.066  -0.034  0.00  0.00    +0.000 C 
ATOM     10  O   UNL     1       0.460  -0.258   1.265  0.00  0.00    +0.000 OA
ENDBRANCH   3  10
BRANCH   8  11
ATOM     11  O   UNL     1       1.428  -2.313  -0.468  0.00  0.00    +0.000 OA
ATOM     12  H   UNL     1       1.429  -1.376  -0.817  0.00  0.00    +0.000 HD
ENDBRANCH   8  11
ENDBRANCH   1   6
BRANCH   2  13
ATOM     13  C   UNL     1       0.069  -7.235   4.969  0.00  0.00    +0.000 A 
ATOM     14  C   UNL     1       1.172  -8.065   4.747  0.00  0.00    +0.000 A 
ATOM     15  C   UNL     1       1.116  -9.378   5.260  0.00  0.00    +0.000 A 
ATOM     16  C   UNL     1      -0.006  -9.831   5.912  0.00  0.00    +0.000 A 
ATOM     17  C   UNL     1      -1.078  -8.984   6.115  0.00  0.00    +0.000 A 
ATOM     18  C   UNL     1      -1.038  -7.692   5.651  0.00  0.00    +0.000 A 
BRANCH  15  19
ATOM     19  O   UNL     1       2.145 -10.243   5.113  0.00  0.00    +0.000 OA
ATOM     20  C   UNL     1       3.330  -9.831   4.448  0.00  0.00    +0.000 C 
ENDBRANCH  15  19
BRANCH  16  21
ATOM     21  O   UNL     1      -0.062 -11.172   6.377  0.00  0.00    +0.000 OA
ATOM     22  C   UNL     1       1.039 -12.043   6.169  0.00  0.00    +0.000 C 
ENDBRANCH  16  21
BRANCH  17  23
ATOM     23  O   UNL     1      -2.227  -9.452   6.806  0.00  0.00    +0.000 OA
ATOM     24  C   UNL     1      -3.331  -8.584   7.016  0.00  0.00    +0.000 C 
ENDBRANCH  17  23
ENDBRANCH   2  13
TORSDOF 7
