REMARK  Name = 
REMARK  11 active torsions:
REMARK  status: ('A' for Active; 'I' for Inactive)
REMARK    1  A    between atoms: C_1  and  C_2
REMARK    2  A    between atoms: C_5  and  C_6
REMARK    3  A    between atoms: C_6  and  O_8
REMARK    4  A    between atoms: C_11  and  C_12
REMARK    5  A    between atoms: C_17  and  C_18
REMARK    6  A    between atoms: C_20  and  O_21
REMARK    7  A    between atoms: C_22  and  O_23
REMARK    8  A    between atoms: C_24  and  C_25
REMARK    9  A    between atoms: C_24  and  C_26
REMARK   10  A    between atoms: C_30  and  C_31
REMARK   11  A    between atoms: C_33  and  C_34
REMARK                            x       y       z     vdW  Elec       q    Type
REMARK                         _______ _______ _______ _____ _____    ______ ____
ROOT
ATOM      1  C   UNL     1       0.958  -0.083  -0.037  0.00  0.00    +0.000 C 
ATOM      2  C   UNL     1       0.451  -0.754   1.229  0.00  0.00    +0.000 C 
ATOM      3  C   UNL     1       1.347  -1.881   1.428  0.00  0.00    +0.000 C 
ATOM      4  C   UNL     1       0.868  -3.099   1.131  0.00  0.00    +0.000 C 
ATOM      5  C   UNL     1       1.738  -4.315   1.313  0.00  0.00    +0.000 C 
ATOM      6  C   UNL     1       0.941  -5.411   2.023  0.00  0.00    +0.000 C 
ATOM      7  C   UNL     1       1.288  -5.409   3.511  0.00  0.00    +0.000 C 
ATOM      8  C   UNL     1       0.058  -4.996   4.320  0.00  0.00    +0.000 C 
ATOM      9  C   UNL     1      -0.888  -6.154   4.048  0.00  0.00    +0.000 C 
ATOM     10  C   UNL     1      -0.051  -0.483   4.634  0.00  0.00    +0.000 C 
ATOM     11  C   UNL     1      -0.929  -1.238   5.247  0.00  0.00    +0.000 C 
ATOM     12  C   UNL     1      -0.520  -2.042   6.454  0.00  0.00    +0.000 C 
ATOM     13  C   UNL     1      -0.746  -3.530   6.177  0.00  0.00    +0.000 C 
ATOM     14  C   UNL     1      -1.954  -3.699   5.269  0.00  0.00    +0.000 C 
ATOM     15  C   UNL     1      -3.175  -3.115   5.960  0.00  0.00    +0.000 C 
ATOM     16  C   UNL     1      -1.713  -2.968   3.946  0.00  0.00    +0.000 C 
ATOM     17  C   UNL     1      -0.598  -3.557   3.274  0.00  0.00    +0.000 C 
ATOM     18  C   UNL     1      -0.779  -4.935   2.942  0.00  0.00    +0.000 C 
ATOM     19  C   UNL     1      -0.982  -5.745   4.224  0.00  0.00    +0.000 C 
ATOM     20  C   UNL     1       0.262  -5.648   5.093  0.00  0.00    +0.000 C 
ATOM     21  C   UNL     1      -1.234  -7.202   3.870  0.00  0.00    +0.000 C 
ATOM     22  C   UNL     1      -2.188  -5.187   4.986  0.00  0.00    +0.000 C 
ATOM     23  C   UNL     1      -2.360  -5.938   6.296  0.00  0.00    +0.000 C 
ATOM     24  C   UNL     1       1.368  -2.984   4.980  0.00  0.00    +0.000 C 
ATOM     25  C   UNL     1       0.491  -4.115   5.493  0.00  0.00    +0.000 C 
ATOM     26  C   UNL     1       1.275  -4.951   6.492  0.00  0.00    +0.000 C 
ATOM     27  C   UNL     1      -0.460   0.321   3.427  0.00  0.00    +0.000 C 
ATOM     28  C   UNL     1       0.609   0.219   2.369  0.00  0.00    +0.000 C 
ATOM     29  C   UNL     1       0.552   1.574   1.683  0.00  0.00    +0.000 C 
ENDROOT
BRANCH   5  30
ATOM     30  C   UNL     1       2.933  -5.055   0.735  0.00  0.00    +0.000 C 
ATOM     31  O   UNL     1       3.529  -4.598  -0.290  0.00  0.00    +0.000 OA
BRANCH  30  32
ATOM     32  O   UNL     1       3.384  -6.258   1.340  0.00  0.00    +0.000 OA
ATOM     33  H   UNL     1       4.170  -6.745   0.960  0.00  0.00    +0.000 HD
ENDBRANCH  30  32
ENDBRANCH   5  30
BRANCH  17  34
ATOM     34  O   UNL     1       0.502  -3.492   4.170  0.00  0.00    +0.000 OA
ATOM     35  H   UNL     1       0.290  -4.014   4.996  0.00  0.00    +0.000 HD
ENDBRANCH  17  34
BRANCH  18  36
ATOM     36  O   UNL     1       0.370  -5.412   2.257  0.00  0.00    +0.000 OA
ATOM     37  H   UNL     1       1.174  -5.313   2.845  0.00  0.00    +0.000 HD
ENDBRANCH  18  36
TORSDOF 4
