
 OpenBabel03132514253D

 18 17  0  0  0  0  0  0  0  0999 V2000
    0.9295    0.0109   -0.0700 C   0  0  0  0  0  0  0  0  0  0  0  0
    0.4395    0.3219   -1.4206 N   0  0  0  0  0  0  0  0  0  0  0  0
   -0.4057   -0.6446   -2.1365 C   0  0  0  0  0  0  0  0  0  0  0  0
   -1.7482   -0.0064   -2.4536 C   0  0  0  0  0  0  0  0  0  0  0  0
   -2.1278    0.1085   -3.6610 O   0  0  0  0  0  0  0  0  0  0  0  0
   -2.5784    0.4614   -1.4008 O   0  0  0  0  0  0  0  0  0  0  0  0
    0.7946    1.5994   -2.0553 C   0  0  0  0  0  0  0  0  0  0  0  0
    1.5510    2.4644   -1.4146 N   0  0  0  0  0  0  0  0  0  0  0  0
    0.3046    1.9103   -3.4059 N   0  0  0  0  0  0  0  0  0  0  0  0
    0.5728   -0.9536    0.2255 H   0  0  0  0  0  0  0  0  0  0  0  0
    0.5728    0.7492    0.6175 H   0  0  0  0  0  0  0  0  0  0  0  0
    1.9995    0.0109   -0.0700 H   0  0  0  0  0  0  0  0  0  0  0  0
    0.0759   -0.9336   -3.0473 H   0  0  0  0  0  0  0  0  0  0  0  0
   -0.5573   -1.5085   -1.5236 H   0  0  0  0  0  0  0  0  0  0  0  0
   -3.4616    0.8813   -1.6094 H   0  0  0  0  0  0  0  0  0  0  0  0
    1.8910    2.2486   -0.4775 H   0  0  0  0  0  0  0  0  0  0  0  0
   -0.2818    1.2397   -3.9027 H   0  0  0  0  0  0  0  0  0  0  0  0
    0.5510    2.7967   -3.8464 H   0  0  0  0  0  0  0  0  0  0  0  0
  1  2  1  0  0  0  0
  1 10  1  0  0  0  0
  1 11  1  0  0  0  0
  1 12  1  0  0  0  0
  2  3  1  0  0  0  0
  2  7  1  0  0  0  0
  3  4  1  0  0  0  0
  3 13  1  0  0  0  0
  3 14  1  0  0  0  0
  4  5  2  0  0  0  0
  4  6  1  0  0  0  0
  6 15  1  0  0  0  0
  7  8  2  0  0  0  0
  7  9  1  0  0  0  0
  8 16  1  0  0  0  0
  9 17  1  0  0  0  0
  9 18  1  0  0  0  0
M  END
