REMARK  Name = 
REMARK  4 active torsions:
REMARK  status: ('A' for Active; 'I' for Inactive)
REMARK    1  A    between atoms: C_2  and  C_3
REMARK    2  A    between atoms: C_2  and  C_12
REMARK    3  A    between atoms: C_3  and  C_4
REMARK    4  A    between atoms: C_4  and  C_6
REMARK                            x       y       z     vdW  Elec       q    Type
REMARK                         _______ _______ _______ _____ _____    ______ ____
ROOT
ATOM      1  C   UNL     1       3.029   1.006   0.842  0.00  0.00    +0.000 C 
ENDROOT
BRANCH   1   3
ATOM      2  O   UNL     1       0.998   0.064  -0.077  0.00  0.00    +0.000 OA
ATOM      3  C   UNL     1       2.269   0.064  -0.077  0.00  0.00    +0.000 C 
BRANCH   3   4
ATOM      4  C   UNL     1       3.029  -0.879  -0.996  0.00  0.00    +0.000 A 
ATOM      5  C   UNL     1       4.018  -1.629  -0.382  0.00  0.00    +0.000 A 
ATOM      6  C   UNL     1       4.826  -2.361  -1.285  0.00  0.00    +0.000 A 
ATOM      7  C   UNL     1       4.498  -2.628  -2.536  0.00  0.00    +0.000 A 
ATOM      8  C   UNL     1       3.468  -1.900  -3.063  0.00  0.00    +0.000 A 
ATOM      9  C   UNL     1       2.716  -1.065  -2.273  0.00  0.00    +0.000 A 
ENDBRANCH   3   4
ENDBRANCH   1   3
BRANCH   1  10
ATOM     10  C   UNL     1       3.903   0.197   1.787  0.00  0.00    +0.000 C 
ATOM     11  O   UNL     1       5.163   0.362   1.784  0.00  0.00    +0.000 OA
BRANCH  10  12
ATOM     12  C   UNL     1       3.270  -0.808   2.734  0.00  0.00    +0.000 A 
ATOM     13  C   UNL     1       3.746  -0.996   4.021  0.00  0.00    +0.000 A 
ATOM     14  C   UNL     1       3.383  -2.239   4.591  0.00  0.00    +0.000 A 
ATOM     15  C   UNL     1       2.408  -3.011   4.147  0.00  0.00    +0.000 A 
ATOM     16  C   UNL     1       1.934  -2.732   2.895  0.00  0.00    +0.000 A 
ATOM     17  C   UNL     1       2.340  -1.605   2.221  0.00  0.00    +0.000 A 
ENDBRANCH  10  12
ENDBRANCH   1  10
TORSDOF 4
