REMARK  Name = 
REMARK  8 active torsions:
REMARK  status: ('A' for Active; 'I' for Inactive)
REMARK    1  A    between atoms: C_1  and  C_2
REMARK    2  A    between atoms: C_2  and  C_3
REMARK    3  A    between atoms: C_3  and  C_14
REMARK    4  A    between atoms: C_4  and  C_5
REMARK    5  A    between atoms: C_4  and  C_7
REMARK    6  A    between atoms: C_5  and  C_6
REMARK    7  A    between atoms: C_10  and  O_11
REMARK    8  A    between atoms: C_17  and  O_18
REMARK                            x       y       z     vdW  Elec       q    Type
REMARK                         _______ _______ _______ _____ _____    ______ ____
ROOT
ATOM      1  C   UNL     1       1.093   2.364  -0.636  0.00  0.00    +0.000 C 
ATOM      2  C   UNL     1       0.209   3.092  -1.371  0.00  0.00    +0.000 C 
ENDROOT
BRANCH   2   3
ATOM      3  C   UNL     1      -1.285   2.896  -1.174  0.00  0.00    +0.000 A 
ATOM      4  C   UNL     1      -1.807   2.824   0.099  0.00  0.00    +0.000 A 
ATOM      5  C   UNL     1      -3.179   2.656   0.307  0.00  0.00    +0.000 A 
ATOM      6  C   UNL     1      -4.008   2.580  -0.831  0.00  0.00    +0.000 A 
ATOM      7  C   UNL     1      -3.472   2.624  -2.096  0.00  0.00    +0.000 A 
ATOM      8  C   UNL     1      -2.112   2.791  -2.266  0.00  0.00    +0.000 A 
BRANCH   6   9
ATOM      9  O   UNL     1      -5.349   2.442  -0.726  0.00  0.00    +0.000 OA
ATOM     10  H   UNL     1      -5.779   2.406   0.176  0.00  0.00    +0.000 HD
ENDBRANCH   6   9
ENDBRANCH   2   3
BRANCH   1  11
ATOM     11  C   UNL     1       2.588   2.560  -0.834  0.00  0.00    +0.000 A 
ATOM     12  C   UNL     1       3.418   1.464  -0.926  0.00  0.00    +0.000 A 
ATOM     13  C   UNL     1       4.795   1.617  -1.120  0.00  0.00    +0.000 A 
ATOM     14  C   UNL     1       5.296   2.930  -1.235  0.00  0.00    +0.000 A 
ATOM     15  C   UNL     1       4.462   4.016  -1.111  0.00  0.00    +0.000 A 
ATOM     16  C   UNL     1       3.107   3.829  -0.919  0.00  0.00    +0.000 A 
BRANCH  14  17
ATOM     17  O   UNL     1       6.609   3.174  -1.447  0.00  0.00    +0.000 OA
ATOM     18  H   UNL     1       7.250   2.412  -1.543  0.00  0.00    +0.000 HD
ENDBRANCH  14  17
ENDBRANCH   1  11
BRANCH   1  20
ATOM     19  C   UNL     1       1.093  -0.030   0.019  0.00  0.00    +0.000 C 
ATOM     20  C   UNL     1       0.587   1.357   0.383  0.00  0.00    +0.000 C 
ENDBRANCH   1  20
BRANCH   2  21
ATOM     21  C   UNL     1       0.716   4.099  -2.390  0.00  0.00    +0.000 C 
ATOM     22  C   UNL     1       0.209   3.721  -3.772  0.00  0.00    +0.000 C 
ENDBRANCH   2  21
TORSDOF 6
