
 OpenBabel03132514253D

 40 41  0  0  0  0  0  0  0  0999 V2000
    1.0935   -0.0297    0.0193 C   0  0  0  0  0  0  0  0  0  0  0  0
    0.5868    1.3565    0.3827 C   0  0  0  0  0  0  0  0  0  0  0  0
    1.0935    2.3643   -0.6361 C   0  0  0  0  0  0  0  0  0  0  0  0
    0.2095    3.0916   -1.3712 C   0  0  0  0  0  0  0  0  0  0  0  0
    0.7161    4.0994   -2.3899 C   0  0  0  0  0  0  0  0  0  0  0  0
    0.2095    3.7211   -3.7722 C   0  0  0  0  0  0  0  0  0  0  0  0
   -1.2849    2.8962   -1.1737 C   0  0  0  0  0  0  0  0  0  0  0  0
   -1.8067    2.8243    0.0992 C   0  0  0  0  0  0  0  0  0  0  0  0
   -3.1795    2.6556    0.3074 C   0  0  0  0  0  0  0  0  0  0  0  0
   -4.0082    2.5805   -0.8311 C   0  0  0  0  0  0  0  0  0  0  0  0
   -5.3493    2.4416   -0.7259 O   0  0  0  0  0  0  0  0  0  0  0  0
   -3.4724    2.6238   -2.0962 C   0  0  0  0  0  0  0  0  0  0  0  0
   -2.1117    2.7911   -2.2659 C   0  0  0  0  0  0  0  0  0  0  0  0
    2.5879    2.5597   -0.8335 C   0  0  0  0  0  0  0  0  0  0  0  0
    3.4181    1.4643   -0.9265 C   0  0  0  0  0  0  0  0  0  0  0  0
    4.7949    1.6174   -1.1204 C   0  0  0  0  0  0  0  0  0  0  0  0
    5.2962    2.9305   -1.2349 C   0  0  0  0  0  0  0  0  0  0  0  0
    6.6095    3.1738   -1.4471 O   0  0  0  0  0  0  0  0  0  0  0  0
    4.4621    4.0159   -1.1108 C   0  0  0  0  0  0  0  0  0  0  0  0
    3.1068    3.8289   -0.9195 C   0  0  0  0  0  0  0  0  0  0  0  0
    0.7368   -0.2961   -0.9538 H   0  0  0  0  0  0  0  0  0  0  0  0
    0.7369   -0.7392    0.7364 H   0  0  0  0  0  0  0  0  0  0  0  0
    2.1635   -0.0297    0.0193 H   0  0  0  0  0  0  0  0  0  0  0  0
   -0.4832    1.3565    0.3827 H   0  0  0  0  0  0  0  0  0  0  0  0
    0.9435    1.6228    1.3557 H   0  0  0  0  0  0  0  0  0  0  0  0
    0.3595    5.0752   -2.1341 H   0  0  0  0  0  0  0  0  0  0  0  0
    1.7861    4.0994   -2.3899 H   0  0  0  0  0  0  0  0  0  0  0  0
   -0.8605    3.7211   -3.7722 H   0  0  0  0  0  0  0  0  0  0  0  0
    0.5661    4.4306   -4.4893 H   0  0  0  0  0  0  0  0  0  0  0  0
    0.5661    2.7452   -4.0280 H   0  0  0  0  0  0  0  0  0  0  0  0
   -1.1514    2.8986    0.9419 H   0  0  0  0  0  0  0  0  0  0  0  0
   -3.5862    2.5860    1.2947 H   0  0  0  0  0  0  0  0  0  0  0  0
   -5.7790    2.4057    0.1763 H   0  0  0  0  0  0  0  0  0  0  0  0
   -4.1098    2.5279   -2.9502 H   0  0  0  0  0  0  0  0  0  0  0  0
   -1.6998    2.8391   -3.2523 H   0  0  0  0  0  0  0  0  0  0  0  0
    3.0033    0.4810   -0.8492 H   0  0  0  0  0  0  0  0  0  0  0  0
    5.4442    0.7689   -1.1798 H   0  0  0  0  0  0  0  0  0  0  0  0
    7.2500    2.4118   -1.5430 H   0  0  0  0  0  0  0  0  0  0  0  0
    4.8629    5.0067   -1.1624 H   0  0  0  0  0  0  0  0  0  0  0  0
    2.4584    4.6761   -0.8380 H   0  0  0  0  0  0  0  0  0  0  0  0
  1  2  1  0  0  0  0
  1 21  1  0  0  0  0
  1 22  1  0  0  0  0
  1 23  1  0  0  0  0
  2  3  1  0  0  0  0
  2 24  1  0  0  0  0
  2 25  1  0  0  0  0
  3  4  2  0  0  0  0
  3 14  1  0  0  0  0
  4  5  1  0  0  0  0
  4  7  1  0  0  0  0
  5  6  1  0  0  0  0
  5 26  1  0  0  0  0
  5 27  1  0  0  0  0
  6 28  1  0  0  0  0
  6 29  1  0  0  0  0
  6 30  1  0  0  0  0
  7  8  1  0  0  0  0
  7 13  2  0  0  0  0
  8  9  2  0  0  0  0
  8 31  1  0  0  0  0
  9 10  1  0  0  0  0
  9 32  1  0  0  0  0
 10 11  1  0  0  0  0
 10 12  2  0  0  0  0
 11 33  1  0  0  0  0
 12 13  1  0  0  0  0
 12 34  1  0  0  0  0
 13 35  1  0  0  0  0
 14 15  1  0  0  0  0
 14 20  2  0  0  0  0
 15 16  2  0  0  0  0
 15 36  1  0  0  0  0
 16 17  1  0  0  0  0
 16 37  1  0  0  0  0
 17 18  1  0  0  0  0
 17 19  2  0  0  0  0
 18 38  1  0  0  0  0
 19 20  1  0  0  0  0
 19 39  1  0  0  0  0
 20 40  1  0  0  0  0
M  END
