
 OpenBabel03132514253D

 57 60  0  0  0  0  0  0  0  0999 V2000
    1.0868   -0.0041   -0.0494 C   0  0  0  0  0  0  0  0  0  0  0  0
    0.6135    0.2012    1.2736 O   0  0  0  0  0  0  0  0  0  0  0  0
    0.9566   -0.7172    2.3008 C   0  0  0  0  0  0  0  0  0  0  0  0
   -0.0091   -0.9922    3.2591 C   0  0  0  0  0  0  0  0  0  0  0  0
    0.3610   -1.7340    4.3779 C   0  0  0  0  0  0  0  0  0  0  0  0
    1.6682   -2.1764    4.5084 C   0  0  0  0  0  0  0  0  0  0  0  0
    2.6303   -1.9237    3.5351 C   0  0  0  0  0  0  0  0  0  0  0  0
    2.2611   -1.1825    2.4403 C   0  0  0  0  0  0  0  0  0  0  0  0
    3.2220   -0.8867    1.4375 O   0  0  0  0  0  0  0  0  0  0  0  0
    4.5552   -1.3570    1.5708 C   0  0  0  0  0  0  0  0  0  0  0  0
    1.8343   -2.9087    5.7687 C   0  0  0  0  0  0  0  0  0  0  0  0
    2.8565   -3.4044    6.2098 O   0  0  0  0  0  0  0  0  0  0  0  0
    0.4743   -2.9161    6.4839 C   0  0  0  0  0  0  0  0  0  0  0  0
   -0.0033   -4.3313    6.7659 C   0  0  0  0  0  0  0  0  0  0  0  0
    0.9963   -5.0323    7.6713 C   0  0  0  0  0  0  0  0  0  0  0  0
    1.0053   -4.1578    8.9231 C   0  0  0  0  0  0  0  0  0  0  0  0
    1.5539   -2.7812    8.6156 C   0  0  0  0  0  0  0  0  0  0  0  0
    2.9123   -2.8793    8.0662 N   0  0  0  0  0  0  0  0  0  0  0  0
    3.4438   -1.5296    7.8281 C   0  0  0  0  0  0  0  0  0  0  0  0
    2.5491   -0.7998    6.8395 C   0  0  0  0  0  0  0  0  0  0  0  0
    3.1175   -0.4590    5.6232 C   0  0  0  0  0  0  0  0  0  0  0  0
    2.3081    0.3877    4.8294 C   0  0  0  0  0  0  0  0  0  0  0  0
    1.0118    0.5664    5.0068 C   0  0  0  0  0  0  0  0  0  0  0  0
    0.4980    0.1466    6.2023 C   0  0  0  0  0  0  0  0  0  0  0  0
    1.2645   -0.5727    7.0873 C   0  0  0  0  0  0  0  0  0  0  0  0
    2.8732   -3.6176    6.8052 C   0  0  0  0  0  0  0  0  0  0  0  0
    2.3790   -5.0383    7.0220 C   0  0  0  0  0  0  0  0  0  0  0  0
   -0.4945   -2.1645    5.5474 C   0  0  0  0  0  0  0  0  0  0  0  0
    0.7302    0.7819   -0.6818 H   0  0  0  0  0  0  0  0  0  0  0  0
    0.7302   -0.9447   -0.4139 H   0  0  0  0  0  0  0  0  0  0  0  0
    2.1568   -0.0041   -0.0494 H   0  0  0  0  0  0  0  0  0  0  0  0
   -1.0135   -0.6427    3.1411 H   0  0  0  0  0  0  0  0  0  0  0  0
    3.6281   -2.2962    3.6370 H   0  0  0  0  0  0  0  0  0  0  0  0
    4.9856   -0.9599    2.4664 H   0  0  0  0  0  0  0  0  0  0  0  0
    4.5532   -2.4259    1.6196 H   0  0  0  0  0  0  0  0  0  0  0  0
    5.1314   -1.0396    0.7270 H   0  0  0  0  0  0  0  0  0  0  0  0
    0.5458   -2.4150    7.4266 H   0  0  0  0  0  0  0  0  0  0  0  0
   -0.9578   -4.2962    7.2481 H   0  0  0  0  0  0  0  0  0  0  0  0
   -0.0885   -4.8691    5.8448 H   0  0  0  0  0  0  0  0  0  0  0  0
    0.7452   -6.0532    7.8705 H   0  0  0  0  0  0  0  0  0  0  0  0
    0.0003   -4.0546    9.2756 H   0  0  0  0  0  0  0  0  0  0  0  0
    1.6171   -4.6202    9.6693 H   0  0  0  0  0  0  0  0  0  0  0  0
    0.9214   -2.3106    7.8922 H   0  0  0  0  0  0  0  0  0  0  0  0
    1.5791   -2.2032    9.5157 H   0  0  0  0  0  0  0  0  0  0  0  0
    3.4707   -0.9890    8.7511 H   0  0  0  0  0  0  0  0  0  0  0  0
    4.4335   -1.6014    7.4278 H   0  0  0  0  0  0  0  0  0  0  0  0
    4.0812   -0.8046    5.3122 H   0  0  0  0  0  0  0  0  0  0  0  0
    2.7792    0.9201    4.0297 H   0  0  0  0  0  0  0  0  0  0  0  0
    0.3966    1.0157    4.2554 H   0  0  0  0  0  0  0  0  0  0  0  0
   -0.5155    0.3815    6.4523 H   0  0  0  0  0  0  0  0  0  0  0  0
    0.8222   -0.9532    7.9842 H   0  0  0  0  0  0  0  0  0  0  0  0
    3.8639   -3.6585    6.4029 H   0  0  0  0  0  0  0  0  0  0  0  0
    2.2140   -3.1173    6.1269 H   0  0  0  0  0  0  0  0  0  0  0  0
    3.0625   -5.5466    7.6696 H   0  0  0  0  0  0  0  0  0  0  0  0
    2.3223   -5.5389    6.0781 H   0  0  0  0  0  0  0  0  0  0  0  0
   -1.3194   -2.7744    5.2434 H   0  0  0  0  0  0  0  0  0  0  0  0
   -0.9136   -1.3133    6.0421 H   0  0  0  0  0  0  0  0  0  0  0  0
  1  2  1  0  0  0  0
  1 29  1  0  0  0  0
  1 30  1  0  0  0  0
  1 31  1  0  0  0  0
  2  3  1  0  0  0  0
  3  4  1  0  0  0  0
  3  8  2  0  0  0  0
  4  5  2  0  0  0  0
  4 32  1  0  0  0  0
  5  6  1  0  0  0  0
  5 28  1  0  0  0  0
  6  7  2  0  0  0  0
  6 11  1  0  0  0  0
  7  8  1  0  0  0  0
  7 33  1  0  0  0  0
  8  9  1  0  0  0  0
  9 10  1  0  0  0  0
 10 34  1  0  0  0  0
 10 35  1  0  0  0  0
 10 36  1  0  0  0  0
 11 12  2  0  0  0  0
 11 13  1  0  0  0  0
 13 14  1  0  0  0  0
 13 28  1  0  0  0  0
 13 37  1  0  0  0  0
 14 15  1  0  0  0  0
 14 38  1  0  0  0  0
 14 39  1  0  0  0  0
 15 16  1  0  0  0  0
 15 27  1  0  0  0  0
 15 40  1  0  0  0  0
 16 17  1  0  0  0  0
 16 41  1  0  0  0  0
 16 42  1  0  0  0  0
 17 18  1  0  0  0  0
 17 43  1  0  0  0  0
 17 44  1  0  0  0  0
 18 19  1  0  0  0  0
 18 26  1  0  0  0  0
 19 20  1  0  0  0  0
 19 45  1  0  0  0  0
 19 46  1  0  0  0  0
 20 21  1  0  0  0  0
 20 25  2  0  0  0  0
 21 22  2  0  0  0  0
 21 47  1  0  0  0  0
 22 23  1  0  0  0  0
 22 48  1  0  0  0  0
 23 24  2  0  0  0  0
 23 49  1  0  0  0  0
 24 25  1  0  0  0  0
 24 50  1  0  0  0  0
 25 51  1  0  0  0  0
 26 27  1  0  0  0  0
 26 52  1  0  0  0  0
 26 53  1  0  0  0  0
 27 54  1  0  0  0  0
 27 55  1  0  0  0  0
 28 56  1  0  0  0  0
 28 57  1  0  0  0  0
M  END
