REMARK  Name = 
REMARK  15 active torsions:
REMARK  status: ('A' for Active; 'I' for Inactive)
REMARK    1  A    between atoms: C_1  and  C_2
REMARK    2  A    between atoms: C_2  and  C_3
REMARK    3  A    between atoms: C_4  and  C_5
REMARK    4  A    between atoms: C_5  and  C_6
REMARK    5  A    between atoms: C_7  and  C_8
REMARK    6  A    between atoms: C_8  and  C_9
REMARK    7  A    between atoms: C_10  and  C_11
REMARK    8  A    between atoms: C_11  and  C_12
REMARK    9  A    between atoms: C_13  and  C_14
REMARK   10  A    between atoms: C_14  and  C_15
REMARK   11  A    between atoms: C_16  and  C_17
REMARK   12  A    between atoms: C_17  and  C_18
REMARK   13  A    between atoms: C_18  and  C_19
REMARK   14  A    between atoms: C_19  and  C_20
REMARK   15  A    between atoms: C_20  and  O_22
REMARK                            x       y       z     vdW  Elec       q    Type
REMARK                         _______ _______ _______ _____ _____    ______ ____
ROOT
ATOM      1  C   UNL     1      -5.467  -5.412   7.169  0.00  0.00    +0.000 C 
ATOM      2  C   UNL     1      -6.249  -5.969   8.133  0.00  0.00    +0.000 C 
ENDROOT
BRANCH   1   3
ATOM      3  C   UNL     1      -4.960  -3.988   7.330  0.00  0.00    +0.000 C 
BRANCH   3   5
ATOM      4  C   UNL     1      -2.760  -3.289   6.382  0.00  0.00    +0.000 C 
ATOM      5  C   UNL     1      -3.440  -3.988   7.330  0.00  0.00    +0.000 C 
BRANCH   4   6
ATOM      6  C   UNL     1      -1.240  -3.289   6.382  0.00  0.00    +0.000 C 
BRANCH   6   8
ATOM      7  C   UNL     1       0.049  -3.104   4.253  0.00  0.00    +0.000 C 
ATOM      8  C   UNL     1      -0.733  -3.861   5.069  0.00  0.00    +0.000 C 
BRANCH   7   9
ATOM      9  C   UNL     1       0.556  -3.677   2.939  0.00  0.00    +0.000 C 
BRANCH   9  11
ATOM     10  C   UNL     1       0.933  -2.211   0.955  0.00  0.00    +0.000 C 
ATOM     11  C   UNL     1       0.049  -2.825   1.786  0.00  0.00    +0.000 C 
BRANCH  10  13
ATOM     12  C   UNL     1       0.933   0.064  -0.037  0.00  0.00    +0.000 C 
ATOM     13  C   UNL     1       0.426  -1.360  -0.198  0.00  0.00    +0.000 C 
ENDBRANCH  10  13
ENDBRANCH   9  11
ENDBRANCH   7   9
ENDBRANCH   6   8
ENDBRANCH   4   6
ENDBRANCH   3   5
ENDBRANCH   1   3
BRANCH   2  14
ATOM     14  C   UNL     1      -6.755  -7.393   7.972  0.00  0.00    +0.000 C 
BRANCH  14  15
ATOM     15  C   UNL     1      -6.249  -8.244   9.125  0.00  0.00    +0.000 C 
ATOM     16  C   UNL     1      -7.133  -8.858   9.957  0.00  0.00    +0.000 C 
BRANCH  16  17
ATOM     17  C   UNL     1      -6.626  -9.710  11.110  0.00  0.00    +0.000 C 
BRANCH  17  18
ATOM     18  C   UNL     1      -7.133  -9.137  12.423  0.00  0.00    +0.000 C 
BRANCH  18  19
ATOM     19  C   UNL     1      -8.653  -9.137  12.423  0.00  0.00    +0.000 C 
BRANCH  19  20
ATOM     20  C   UNL     1      -9.159 -10.561  12.262  0.00  0.00    +0.000 C 
ATOM     21  O   UNL     1      -9.890 -11.081  13.163  0.00  0.00    +0.000 OA
BRANCH  20  22
ATOM     22  O   UNL     1      -8.816 -11.310  11.106  0.00  0.00    +0.000 OA
ATOM     23  H   UNL     1      -9.150 -12.247  11.000  0.00  0.00    +0.000 HD
ENDBRANCH  20  22
ENDBRANCH  19  20
ENDBRANCH  18  19
ENDBRANCH  17  18
ENDBRANCH  16  17
ENDBRANCH  14  15
ENDBRANCH   2  14
TORSDOF 14
