REMARK  Name = 
REMARK  10 active torsions:
REMARK  status: ('A' for Active; 'I' for Inactive)
REMARK    1  A    between atoms: C_1  and  O_2
REMARK    2  A    between atoms: O_2  and  C_3
REMARK    3  A    between atoms: C_3  and  C_4
REMARK    4  A    between atoms: C_3  and  C_5
REMARK    5  A    between atoms: C_3  and  C_6
REMARK    6  A    between atoms: C_7  and  C_8
REMARK    7  A    between atoms: C_8  and  C_9
REMARK    8  A    between atoms: C_9  and  C_10
REMARK    9  A    between atoms: C_18  and  O_19
REMARK   10  A    between atoms: C_26  and  O_27
REMARK                            x       y       z     vdW  Elec       q    Type
REMARK                         _______ _______ _______ _____ _____    ______ ____
ROOT
ATOM      1  C   UNL     1      -0.737  -5.850   0.709  0.00  0.00    +0.000 C 
ATOM      2  C   UNL     1      -0.851  -7.018   1.361  0.00  0.00    +0.000 C 
ATOM      3  C   UNL     1      -1.757  -8.002   0.794  0.00  0.00    +0.000 C 
ATOM      4  C   UNL     1      -1.139  -9.372   0.901  0.00  0.00    +0.000 C 
ATOM      5  C   UNL     1       0.186  -4.781   1.236  0.00  0.00    +0.000 C 
ATOM      6  C   UNL     1       1.020  -4.215   0.085  0.00  0.00    +0.000 C 
ATOM      7  C   UNL     1       2.399  -4.872   0.088  0.00  0.00    +0.000 C 
ATOM      8  C   UNL     1       2.560  -5.723  -1.174  0.00  0.00    +0.000 C 
ATOM      9  C   UNL     1       3.326  -7.002  -0.831  0.00  0.00    +0.000 C 
ATOM     10  O   UNL     1       3.304  -7.946  -2.034  0.00  0.00    +0.000 OA
ATOM     11  C   UNL     1       2.986  -9.367  -1.561  0.00  0.00    +0.000 C 
ATOM     12  C   UNL     1       1.491  -9.556  -1.511  0.00  0.00    +0.000 C 
ATOM     13  C   UNL     1       0.906  -9.859  -0.378  0.00  0.00    +0.000 C 
ATOM     14  C   UNL     1      -0.587 -10.049  -0.329  0.00  0.00    +0.000 C 
ATOM     15  C   UNL     1       3.571  -9.582  -0.174  0.00  0.00    +0.000 C 
ATOM     16  C   UNL     1       2.965  -8.578   0.792  0.00  0.00    +0.000 C 
ATOM     17  C   UNL     1       3.549  -8.793   2.179  0.00  0.00    +0.000 C 
ATOM     18  C   UNL     1       5.056  -8.601   2.128  0.00  0.00    +0.000 C 
ATOM     19  C   UNL     1       2.733  -4.715  -2.298  0.00  0.00    +0.000 C 
ENDROOT
BRANCH   9  20
ATOM     20  O   UNL     1       4.670  -6.677  -0.508  0.00  0.00    +0.000 OA
ATOM     21  H   UNL     1       5.102  -6.229  -1.291  0.00  0.00    +0.000 HD
ENDBRANCH   9  20
BRANCH  16  22
ATOM     22  O   UNL     1       1.557  -8.756   0.840  0.00  0.00    +0.000 OA
ATOM     23  H   UNL     1       1.172  -8.615  -0.072  0.00  0.00    +0.000 HD
ENDBRANCH  16  22
BRANCH   1  24
ATOM     24  C   UNL     1      -0.230  -6.174  -0.686  0.00  0.00    +0.000 C 
BRANCH  24  25
ATOM     25  C   UNL     1      -0.737  -5.128  -1.665  0.00  0.00    +0.000 C 
BRANCH  25  27
ATOM     26  C   UNL     1       0.552  -3.034  -2.095  0.00  0.00    +0.000 C 
ATOM     27  C   UNL     1      -0.230  -3.757  -1.248  0.00  0.00    +0.000 C 
BRANCH  26  28
ATOM     28  C   UNL     1       1.059  -1.663  -1.678  0.00  0.00    +0.000 C 
ATOM     29  C   UNL     1       0.552  -0.616  -2.656  0.00  0.00    +0.000 C 
ATOM     30  C   UNL     1       2.579  -1.663  -1.678  0.00  0.00    +0.000 C 
BRANCH  28  32
ATOM     31  C   UNL     1       1.059  -0.079   0.016  0.00  0.00    +0.000 C 
ATOM     32  O   UNL     1       0.586  -1.360  -0.374  0.00  0.00    +0.000 OA
ENDBRANCH  28  32
ENDBRANCH  26  28
ENDBRANCH  25  27
ENDBRANCH  24  25
ENDBRANCH   1  24
TORSDOF 7
