
 OpenBabel03132514253D

 83 87  0  0  0  0  0  0  0  0999 V2000
    1.0091    0.0948   -0.0306 C   0  0  0  0  0  0  0  0  0  0  0  0
    0.5025    1.3471    0.6661 C   0  0  0  0  0  0  0  0  0  0  0  0
   -0.8366    1.8290    0.1323 C   0  0  0  0  0  0  0  0  0  0  0  0
    0.3420    1.0841    2.0862 C   0  0  0  0  0  0  0  0  0  0  0  0
   -0.9139    0.9801    2.5478 C   0  0  0  0  0  0  0  0  0  0  0  0
   -1.1590    0.7100    4.0097 C   0  0  0  0  0  0  0  0  0  0  0  0
   -1.0754   -0.3659    5.0802 C   0  0  0  0  0  0  0  0  0  0  0  0
   -0.6603   -1.5292    4.7808 O   0  0  0  0  0  0  0  0  0  0  0  0
   -1.4611   -0.0712    6.4146 O   0  0  0  0  0  0  0  0  0  0  0  0
    1.3021    3.7632    0.0840 C   0  0  0  0  0  0  0  0  0  0  0  0
    1.6188    2.3385    0.4632 C   0  0  0  0  0  0  0  0  0  0  0  0
    1.3442    4.6314    1.3142 C   0  0  0  0  0  0  0  0  0  0  0  0
    0.4185    5.5379    1.5087 C   0  0  0  0  0  0  0  0  0  0  0  0
    0.4604    6.4069    2.7394 C   0  0  0  0  0  0  0  0  0  0  0  0
   -0.8177    6.1977    3.5553 C   0  0  0  0  0  0  0  0  0  0  0  0
   -1.9778    5.9107    2.6160 C   0  0  0  0  0  0  0  0  0  0  0  0
   -2.1495    7.1019    1.6875 C   0  0  0  0  0  0  0  0  0  0  0  0
   -1.6888    4.6563    1.7881 C   0  0  0  0  0  0  0  0  0  0  0  0
   -1.5879    3.5258    2.6566 C   0  0  0  0  0  0  0  0  0  0  0  0
   -2.7788    3.2509    3.3965 C   0  0  0  0  0  0  0  0  0  0  0  0
   -2.5800    2.0993    4.2032 O   0  0  0  0  0  0  0  0  0  0  0  0
   -3.1119    4.4484    4.2894 C   0  0  0  0  0  0  0  0  0  0  0  0
   -1.9931    4.6627    5.2959 C   0  0  0  0  0  0  0  0  0  0  0  0
   -4.4109    4.1830    5.0328 C   0  0  0  0  0  0  0  0  0  0  0  0
   -3.2665    5.6981    3.4170 C   0  0  0  0  0  0  0  0  0  0  0  0
   -3.5293    6.9091    4.2972 C   0  0  0  0  0  0  0  0  0  0  0  0
    0.5929    4.2140    4.0802 C   0  0  0  0  0  0  0  0  0  0  0  0
   -0.6265    5.0151    4.5065 C   0  0  0  0  0  0  0  0  0  0  0  0
   -0.4243    5.5309    5.9219 C   0  0  0  0  0  0  0  0  0  0  0  0
   -1.8659    4.1196    4.4621 C   0  0  0  0  0  0  0  0  0  0  0  0
   -3.3744    4.2457    4.5996 C   0  0  0  0  0  0  0  0  0  0  0  0
   -1.5940    2.8338    5.2454 C   0  0  0  0  0  0  0  0  0  0  0  0
   -2.1362    2.9517    6.5525 O   0  0  0  0  0  0  0  0  0  0  0  0
   -2.2464    1.6538    4.5274 C   0  0  0  0  0  0  0  0  0  0  0  0
   -3.0194    2.1309    3.4361 O   0  0  0  0  0  0  0  0  0  0  0  0
    0.6525    0.0787   -1.0393 H   0  0  0  0  0  0  0  0  0  0  0  0
    0.6525   -0.7708    0.4876 H   0  0  0  0  0  0  0  0  0  0  0  0
    2.0791    0.0948   -0.0306 H   0  0  0  0  0  0  0  0  0  0  0  0
   -0.7452    2.0536   -0.9098 H   0  0  0  0  0  0  0  0  0  0  0  0
   -1.5715    1.0634    0.2690 H   0  0  0  0  0  0  0  0  0  0  0  0
   -1.1358    2.7093    0.6620 H   0  0  0  0  0  0  0  0  0  0  0  0
    0.7761    0.1185    2.2411 H   0  0  0  0  0  0  0  0  0  0  0  0
    0.8165    1.8821    2.6180 H   0  0  0  0  0  0  0  0  0  0  0  0
   -1.2795    0.0955    2.0695 H   0  0  0  0  0  0  0  0  0  0  0  0
   -1.4051    1.9024    2.3174 H   0  0  0  0  0  0  0  0  0  0  0  0
   -1.4061   -0.7791    7.1189 H   0  0  0  0  0  0  0  0  0  0  0  0
    1.4115    4.2523   -0.8614 H   0  0  0  0  0  0  0  0  0  0  0  0
    2.1285    1.9620   -0.3990 H   0  0  0  0  0  0  0  0  0  0  0  0
    2.1677    2.3778    1.3809 H   0  0  0  0  0  0  0  0  0  0  0  0
   -0.3677    5.6614    0.7935 H   0  0  0  0  0  0  0  0  0  0  0  0
    0.5338    7.4340    2.4486 H   0  0  0  0  0  0  0  0  0  0  0  0
    1.3101    6.1429    3.3337 H   0  0  0  0  0  0  0  0  0  0  0  0
   -1.0281    7.0808    4.1216 H   0  0  0  0  0  0  0  0  0  0  0  0
   -2.3551    7.9783    2.2660 H   0  0  0  0  0  0  0  0  0  0  0  0
   -1.2509    7.2484    1.1253 H   0  0  0  0  0  0  0  0  0  0  0  0
   -2.9633    6.9177    1.0177 H   0  0  0  0  0  0  0  0  0  0  0  0
   -2.4834    4.4994    1.0888 H   0  0  0  0  0  0  0  0  0  0  0  0
   -0.7677    4.7828    1.2585 H   0  0  0  0  0  0  0  0  0  0  0  0
   -0.8255    3.7534    3.3721 H   0  0  0  0  0  0  0  0  0  0  0  0
   -1.3546    2.6663    2.0637 H   0  0  0  0  0  0  0  0  0  0  0  0
   -3.5877    3.0756    2.7183 H   0  0  0  0  0  0  0  0  0  0  0  0
   -1.8241    2.2628    4.8371 H   0  0  0  0  0  0  0  0  0  0  0  0
   -2.2283    5.5012    5.9175 H   0  0  0  0  0  0  0  0  0  0  0  0
   -1.8868    3.7877    5.9026 H   0  0  0  0  0  0  0  0  0  0  0  0
   -1.0768    4.8498    4.7762 H   0  0  0  0  0  0  0  0  0  0  0  0
   -5.2015    4.0343    4.3273 H   0  0  0  0  0  0  0  0  0  0  0  0
   -4.3031    3.3071    5.6377 H   0  0  0  0  0  0  0  0  0  0  0  0
   -4.6425    5.0210    5.6566 H   0  0  0  0  0  0  0  0  0  0  0  0
   -4.0888    5.5668    2.7451 H   0  0  0  0  0  0  0  0  0  0  0  0
   -4.4287    6.7554    4.8560 H   0  0  0  0  0  0  0  0  0  0  0  0
   -2.7094    7.0447    4.9713 H   0  0  0  0  0  0  0  0  0  0  0  0
    1.4599    4.8404    4.1111 H   0  0  0  0  0  0  0  0  0  0  0  0
    0.7267    3.3868    4.7455 H   0  0  0  0  0  0  0  0  0  0  0  0
   -0.2906    4.7036    6.5872 H   0  0  0  0  0  0  0  0  0  0  0  0
    0.4426    6.1572    5.9529 H   0  0  0  0  0  0  0  0  0  0  0  0
   -1.2827    6.0948    6.2220 H   0  0  0  0  0  0  0  0  0  0  0  0
   -3.6702    5.2495    4.3763 H   0  0  0  0  0  0  0  0  0  0  0  0
   -3.8521    3.5731    3.9183 H   0  0  0  0  0  0  0  0  0  0  0  0
   -3.6627    4.0034    5.6011 H   0  0  0  0  0  0  0  0  0  0  0  0
   -0.5383    2.6723    5.3109 H   0  0  0  0  0  0  0  0  0  0  0  0
   -3.1229    3.1026    6.4918 H   0  0  0  0  0  0  0  0  0  0  0  0
   -2.8809    1.1274    5.2095 H   0  0  0  0  0  0  0  0  0  0  0  0
   -2.4272    2.6231    2.7980 H   0  0  0  0  0  0  0  0  0  0  0  0
  1  2  1  0  0  0  0
  1 36  1  0  0  0  0
  1 37  1  0  0  0  0
  1 38  1  0  0  0  0
  2  3  1  0  0  0  0
  2  4  1  0  0  0  0
  2 11  1  0  0  0  0
  3 39  1  0  0  0  0
  3 40  1  0  0  0  0
  3 41  1  0  0  0  0
  4  5  1  0  0  0  0
  4 42  1  0  0  0  0
  4 43  1  0  0  0  0
  5  6  1  0  0  0  0
  5 44  1  0  0  0  0
  5 45  1  0  0  0  0
  6  7  1  0  0  0  0
  6 10  1  0  0  0  0
  6 34  1  0  0  0  0
  7  8  2  0  0  0  0
  7  9  1  0  0  0  0
  9 46  1  0  0  0  0
 10 11  1  0  0  0  0
 10 12  1  0  0  0  0
 10 47  1  0  0  0  0
 11 48  1  0  0  0  0
 11 49  1  0  0  0  0
 12 13  2  0  0  0  0
 12 30  1  0  0  0  0
 13 14  1  0  0  0  0
 13 50  1  0  0  0  0
 14 15  1  0  0  0  0
 14 51  1  0  0  0  0
 14 52  1  0  0  0  0
 15 16  1  0  0  0  0
 15 28  1  0  0  0  0
 15 53  1  0  0  0  0
 16 17  1  0  0  0  0
 16 18  1  0  0  0  0
 16 25  1  0  0  0  0
 17 54  1  0  0  0  0
 17 55  1  0  0  0  0
 17 56  1  0  0  0  0
 18 19  1  0  0  0  0
 18 57  1  0  0  0  0
 18 58  1  0  0  0  0
 19 20  1  0  0  0  0
 19 59  1  0  0  0  0
 19 60  1  0  0  0  0
 20 21  1  0  0  0  0
 20 22  1  0  0  0  0
 20 61  1  0  0  0  0
 21 62  1  0  0  0  0
 22 23  1  0  0  0  0
 22 24  1  0  0  0  0
 22 25  1  0  0  0  0
 23 63  1  0  0  0  0
 23 64  1  0  0  0  0
 23 65  1  0  0  0  0
 24 66  1  0  0  0  0
 24 67  1  0  0  0  0
 24 68  1  0  0  0  0
 25 26  1  0  0  0  0
 25 69  1  0  0  0  0
 26 27  1  0  0  0  0
 26 70  1  0  0  0  0
 26 71  1  0  0  0  0
 27 28  1  0  0  0  0
 27 72  1  0  0  0  0
 27 73  1  0  0  0  0
 28 29  1  0  0  0  0
 28 30  1  0  0  0  0
 29 74  1  0  0  0  0
 29 75  1  0  0  0  0
 29 76  1  0  0  0  0
 30 31  1  0  0  0  0
 30 32  1  0  0  0  0
 31 77  1  0  0  0  0
 31 78  1  0  0  0  0
 31 79  1  0  0  0  0
 32 33  1  0  0  0  0
 32 34  1  0  0  0  0
 32 80  1  0  0  0  0
 33 81  1  0  0  0  0
 34 35  1  0  0  0  0
 34 82  1  0  0  0  0
 35 83  1  0  0  0  0
M  END
