REMARK  Name = 
REMARK  2 active torsions:
REMARK  status: ('A' for Active; 'I' for Inactive)
REMARK    1  A    between atoms: C_7  and  O_8
REMARK    2  A    between atoms: C_9  and  O_10
REMARK                            x       y       z     vdW  Elec       q    Type
REMARK                         _______ _______ _______ _____ _____    ______ ____
ROOT
ATOM      1  O   UNL     1       1.061   0.061  -0.051  0.00  0.00    +0.000 OA
ATOM      2  C   UNL     1       2.332   0.061  -0.051  0.00  0.00    +0.000 A 
ATOM      3  C   UNL     1       3.017   1.238  -0.252  0.00  0.00    +0.000 A 
ATOM      4  C   UNL     1       4.337   1.319   0.254  0.00  0.00    +0.000 A 
ATOM      5  C   UNL     1       5.066   0.136   0.213  0.00  0.00    +0.000 A 
ATOM      6  C   UNL     1       6.385   0.109   0.230  0.00  0.00    +0.000 A 
ATOM      7  C   UNL     1       7.028  -1.045   0.185  0.00  0.00    +0.000 A 
ATOM      8  C   UNL     1       6.395  -2.200   0.122  0.00  0.00    +0.000 A 
ATOM      9  C   UNL     1       5.069  -2.263   0.103  0.00  0.00    +0.000 A 
ATOM     10  C   UNL     1       4.348  -1.075   0.151  0.00  0.00    +0.000 A 
ATOM     11  O   UNL     1       2.980  -1.052   0.140  0.00  0.00    +0.000 OA
ENDROOT
BRANCH   7  12
ATOM     12  O   UNL     1       8.448  -1.041   0.204  0.00  0.00    +0.000 OA
ATOM     13  H   UNL     1       8.951  -1.905   0.170  0.00  0.00    +0.000 HD
ENDBRANCH   7  12
BRANCH   8  14
ATOM     14  O   UNL     1       7.149  -3.402   0.074  0.00  0.00    +0.000 OA
ATOM     15  H   UNL     1       8.148  -3.367   0.088  0.00  0.00    +0.000 HD
ENDBRANCH   8  14
TORSDOF 2
