REMARK  Name = 
REMARK  11 active torsions:
REMARK  status: ('A' for Active; 'I' for Inactive)
REMARK    1  A    between atoms: C_2  and  C_3
REMARK    2  A    between atoms: C_3  and  C_4
REMARK    3  A    between atoms: C_7  and  O_8
REMARK    4  A    between atoms: O_8  and  C_9
REMARK    5  A    between atoms: C_11  and  C_12
REMARK    6  A    between atoms: C_12  and  O_13
REMARK    7  A    between atoms: C_14  and  O_15
REMARK    8  A    between atoms: C_16  and  O_17
REMARK    9  A    between atoms: C_18  and  O_19
REMARK   10  A    between atoms: C_20  and  O_21
REMARK   11  A    between atoms: O_21  and  C_22
REMARK                            x       y       z     vdW  Elec       q    Type
REMARK                         _______ _______ _______ _____ _____    ______ ____
ROOT
ATOM      1  C   UNL     1      -4.490   5.825  -2.521  0.00  0.00    +0.000 C 
ATOM      2  O   UNL     1      -4.729   5.072  -3.832  0.00  0.00    +0.000 OA
ATOM      3  C   UNL     1      -4.629   3.665  -3.598  0.00  0.00    +0.000 C 
ATOM      4  C   UNL     1      -5.586   3.159  -2.666  0.00  0.00    +0.000 C 
ATOM      5  C   UNL     1      -5.381   3.835  -1.308  0.00  0.00    +0.000 C 
ATOM      6  C   UNL     1      -5.507   5.352  -1.477  0.00  0.00    +0.000 C 
ENDROOT
BRANCH   4   7
ATOM      7  O   UNL     1      -5.416   1.756  -2.527  0.00  0.00    +0.000 OA
ATOM      8  H   UNL     1      -4.493   1.563  -2.195  0.00  0.00    +0.000 HD
ENDBRANCH   4   7
BRANCH   5   9
ATOM      9  O   UNL     1      -4.091   3.516  -0.805  0.00  0.00    +0.000 OA
ATOM     10  H   UNL     1      -3.395   3.839  -1.446  0.00  0.00    +0.000 HD
ENDBRANCH   5   9
BRANCH   6  11
ATOM     11  O   UNL     1      -5.255   5.996  -0.237  0.00  0.00    +0.000 OA
ATOM     12  H   UNL     1      -4.331   5.771   0.073  0.00  0.00    +0.000 HD
ENDBRANCH   6  11
BRANCH   1  13
ATOM     13  O   UNL     1      -3.160   5.604  -2.076  0.00  0.00    +0.000 OA
BRANCH  13  17
ATOM     14  C   UNL     1      -1.798   1.716  -1.424  0.00  0.00    +0.000 A 
ATOM     15  C   UNL     1      -0.892   2.760  -1.340  0.00  0.00    +0.000 A 
ATOM     16  C   UNL     1      -1.491   4.042  -1.361  0.00  0.00    +0.000 A 
ATOM     17  C   UNL     1      -2.720   4.287  -1.777  0.00  0.00    +0.000 A 
ATOM     18  C   UNL     1      -3.546   3.205  -1.905  0.00  0.00    +0.000 A 
ATOM     19  C   UNL     1      -3.062   1.927  -1.770  0.00  0.00    +0.000 A 
BRANCH  18  20
ATOM     20  O   UNL     1      -4.925   3.406  -2.182  0.00  0.00    +0.000 OA
ATOM     21  C   UNL     1      -5.792   2.290  -2.317  0.00  0.00    +0.000 C 
ENDBRANCH  18  20
BRANCH  14  22
ATOM     22  C   UNL     1      -1.291   0.316  -1.117  0.00  0.00    +0.000 C 
BRANCH  22  24
ATOM     23  C   UNL     1       0.909  -0.041   0.005  0.00  0.00    +0.000 C 
ATOM     24  C   UNL     1       0.229   0.316  -1.117  0.00  0.00    +0.000 C 
ENDBRANCH  22  24
ENDBRANCH  14  22
ENDBRANCH  13  17
ENDBRANCH   1  13
BRANCH   3  25
ATOM     25  C   UNL     1      -3.256   3.418  -2.995  0.00  0.00    +0.000 C 
BRANCH  25  26
ATOM     26  O   UNL     1      -3.083   2.028  -2.764  0.00  0.00    +0.000 OA
ATOM     27  H   UNL     1      -3.788   1.705  -2.132  0.00  0.00    +0.000 HD
ENDBRANCH  25  26
ENDBRANCH   3  25
TORSDOF 10
