REMARK  Name = 
REMARK  22 active torsions:
REMARK  status: ('A' for Active; 'I' for Inactive)
REMARK    1  A    between atoms: C_1  and  O_2
REMARK    2  A    between atoms: O_2  and  C_3
REMARK    3  A    between atoms: C_8  and  C_9
REMARK    4  A    between atoms: C_10  and  O_11
REMARK    5  A    between atoms: C_26  and  C_27
REMARK    6  A    between atoms: C_27  and  C_28
REMARK    7  A    between atoms: C_27  and  C_29
REMARK    8  A    between atoms: C_29  and  C_30
REMARK    9  A    between atoms: C_33  and  O_34
REMARK   10  A    between atoms: O_34  and  C_35
REMARK   11  A    between atoms: C_35  and  C_36
REMARK   12  A    between atoms: C_36  and  O_37
REMARK   13  A    between atoms: C_38  and  O_39
REMARK   14  A    between atoms: O_39  and  C_40
REMARK   15  A    between atoms: C_45  and  C_46
REMARK   16  A    between atoms: C_48  and  C_49
REMARK   17  A    between atoms: C_50  and  O_51
REMARK   18  A    between atoms: C_52  and  O_53
REMARK   19  A    between atoms: O_53  and  C_54
REMARK   20  A    between atoms: C_57  and  C_58
REMARK   21  A    between atoms: C_60  and  C_61
REMARK   22  A    between atoms: C_67  and  C_68
REMARK                            x       y       z     vdW  Elec       q    Type
REMARK                         _______ _______ _______ _____ _____    ______ ____
ROOT
ATOM      1  C   UNL     1       1.026  -0.815  -2.205  0.00  0.00    +0.000 C 
ATOM      2  C   UNL     1       2.546  -0.815  -2.205  0.00  0.00    +0.000 C 
ATOM      3  C   UNL     1       3.053  -2.139  -1.656  0.00  0.00    +0.000 C 
ATOM      4  C   UNL     1       2.545  -3.542  -1.996  0.00  0.00    +0.000 C 
ATOM      5  C   UNL     1       2.382  -3.658  -3.411  0.00  0.00    +0.000 C 
ATOM      6  C   UNL     1       3.589  -3.479  -4.154  0.00  0.00    +0.000 C 
ATOM      7  C   UNL     1       3.302  -3.651  -5.637  0.00  0.00    +0.000 C 
ATOM      8  C   UNL     1       4.139  -2.073  -3.901  0.00  0.00    +0.000 C 
ATOM      9  O   UNL     1       4.370  -1.887  -2.398  0.00  0.00    +0.000 OA
ATOM     10  C   UNL     1       5.454  -1.901  -4.643  0.00  0.00    +0.000 C 
ATOM     11  O   UNL     1       5.923  -2.857  -5.337  0.00  0.00    +0.000 OA
ATOM     12  C   UNL     1       6.210  -0.584  -4.554  0.00  0.00    +0.000 C 
ATOM     13  O   UNL     1       5.741   0.372  -3.860  0.00  0.00    +0.000 OA
ATOM     14  N   UNL     1       7.482  -0.417  -5.272  0.00  0.00    +0.000 N 
ATOM     15  C   UNL     1       8.751   0.211  -4.692  0.00  0.00    +0.000 C 
ATOM     16  C   UNL     1       9.827  -0.727  -4.776  0.00  0.00    +0.000 C 
ATOM     17  C   UNL     1      10.151  -1.125  -6.109  0.00  0.00    +0.000 C 
ATOM     18  C   UNL     1       8.938  -1.807  -6.747  0.00  0.00    +0.000 C 
ATOM     19  C   UNL     1       7.748  -0.843  -6.720  0.00  0.00    +0.000 C 
ATOM     20  C   UNL     1       6.517  -1.531  -7.287  0.00  0.00    +0.000 C 
ATOM     21  O   UNL     1       5.936  -1.053  -8.311  0.00  0.00    +0.000 OA
ATOM     22  O   UNL     1       6.016  -2.709  -6.672  0.00  0.00    +0.000 OA
ATOM     23  C   UNL     1       4.866  -3.352  -7.201  0.00  0.00    +0.000 C 
ATOM     24  C   UNL     1       5.137  -3.774  -8.636  0.00  0.00    +0.000 C 
ATOM     25  C   UNL     1       6.315  -4.734  -8.668  0.00  0.00    +0.000 C 
ATOM     26  O   UNL     1       6.163  -5.911  -9.125  0.00  0.00    +0.000 OA
ATOM     27  C   UNL     1       7.673  -4.288  -8.154  0.00  0.00    +0.000 C 
ATOM     28  C   UNL     1       8.153  -3.092  -8.960  0.00  0.00    +0.000 C 
ATOM     29  C   UNL     1       7.558  -3.898  -6.689  0.00  0.00    +0.000 C 
ATOM     30  C   UNL     1       8.292  -4.553  -5.750  0.00  0.00    +0.000 C 
ATOM     31  C   UNL     1       8.176  -4.163  -4.286  0.00  0.00    +0.000 C 
ATOM     32  C   UNL     1       9.229  -5.676  -6.166  0.00  0.00    +0.000 C 
ATOM     33  C   UNL     1      10.269  -5.136  -7.135  0.00  0.00    +0.000 C 
ATOM     34  C   UNL     1      11.205  -6.258  -7.550  0.00  0.00    +0.000 C 
ATOM     35  O   UNL     1      11.302  -6.585  -8.774  0.00  0.00    +0.000 OA
ATOM     36  C   UNL     1      12.026  -6.991  -6.501  0.00  0.00    +0.000 C 
ATOM     37  C   UNL     1      12.932  -6.002  -5.786  0.00  0.00    +0.000 C 
ATOM     38  C   UNL     1      11.094  -7.644  -5.494  0.00  0.00    +0.000 C 
ATOM     39  C   UNL     1      10.188  -8.633  -6.209  0.00  0.00    +0.000 C 
ATOM     40  C   UNL     1      11.035  -9.700  -6.883  0.00  0.00    +0.000 C 
ATOM     41  C   UNL     1       9.256  -9.286  -5.202  0.00  0.00    +0.000 C 
ATOM     42  C   UNL     1       7.909  -9.156  -5.337  0.00  0.00    +0.000 C 
ATOM     43  C   UNL     1       6.977  -9.809  -4.330  0.00  0.00    +0.000 C 
ATOM     44  C   UNL     1       5.629  -9.679  -4.465  0.00  0.00    +0.000 C 
ATOM     45  C   UNL     1       4.697 -10.332  -3.458  0.00  0.00    +0.000 C 
ATOM     46  C   UNL     1       0.520   0.509  -2.754  0.00  0.00    +0.000 C 
ATOM     47  C   UNL     1      -0.975   0.765  -2.860  0.00  0.00    +0.000 C 
ENDROOT
BRANCH   1  49
ATOM     48  C   UNL     1       1.026   0.073  -0.063  0.00  0.00    +0.000 C 
ATOM     49  O   UNL     1       0.553  -0.989  -0.877  0.00  0.00    +0.000 OA
ENDBRANCH   1  49
BRANCH   8  50
ATOM     50  O   UNL     1       3.209  -1.105  -4.365  0.00  0.00    +0.000 OA
ATOM     51  H   UNL     1       2.342  -1.216  -3.879  0.00  0.00    +0.000 HD
ENDBRANCH   8  50
BRANCH  23  52
ATOM     52  C   UNL     1       3.688  -2.392  -7.170  0.00  0.00    +0.000 C 
ATOM     53  C   UNL     1       4.012  -1.165  -8.006  0.00  0.00    +0.000 C 
BRANCH  52  54
ATOM     54  C   UNL     1       2.457  -3.080  -7.736  0.00  0.00    +0.000 C 
BRANCH  54  55
ATOM     55  C   UNL     1       2.133  -4.308  -6.900  0.00  0.00    +0.000 C 
ATOM     56  C   UNL     1       0.604  -4.303  -6.971  0.00  0.00    +0.000 C 
ATOM     57  C   UNL     1       0.190  -4.475  -8.328  0.00  0.00    +0.000 C 
ATOM     58  C   UNL     1       0.613  -5.706  -8.915  0.00  0.00    +0.000 C 
ATOM     59  C   UNL     1       2.143  -5.768  -8.923  0.00  0.00    +0.000 C 
ATOM     60  C   UNL     1       2.659  -5.621  -7.489  0.00  0.00    +0.000 C 
BRANCH  59  61
ATOM     61  O   UNL     1       2.658  -4.717  -9.727  0.00  0.00    +0.000 OA
ATOM     62  C   UNL     1       2.238  -3.467  -9.199  0.00  0.00    +0.000 C 
ENDBRANCH  59  61
BRANCH  58  63
ATOM     63  O   UNL     1       0.129  -5.787 -10.247  0.00  0.00    +0.000 OA
BRANCH  63  64
ATOM     64  C   UNL     1       0.642  -4.700 -11.004  0.00  0.00    +0.000 C 
BRANCH  64  65
ATOM     65  C   UNL     1       0.191  -3.390 -10.379  0.00  0.00    +0.000 C 
BRANCH  65  66
ATOM     66  O   UNL     1       0.675  -3.310  -9.047  0.00  0.00    +0.000 OA
ATOM     67  H   UNL     1       0.314  -4.075  -8.514  0.00  0.00    +0.000 HD
ENDBRANCH  65  66
ENDBRANCH  64  65
ENDBRANCH  63  64
ENDBRANCH  58  63
ENDBRANCH  54  55
ENDBRANCH  52  54
ENDBRANCH  23  52
BRANCH  32  68
ATOM     68  O   UNL     1       8.483  -6.705  -6.798  0.00  0.00    +0.000 OA
ATOM     69  H   UNL     1       7.799  -7.061  -6.161  0.00  0.00    +0.000 HD
ENDBRANCH  32  68
BRANCH  33  70
ATOM     70  O   UNL     1      11.015  -4.106  -6.502  0.00  0.00    +0.000 OA
ATOM     71  C   UNL     1      10.139  -3.058  -6.114  0.00  0.00    +0.000 C 
ENDBRANCH  33  70
TORSDOF 12
