REMARK  Name = 
REMARK  12 active torsions:
REMARK  status: ('A' for Active; 'I' for Inactive)
REMARK    1  A    between atoms: C_1  and  C_2
REMARK    2  A    between atoms: C_2  and  C_3
REMARK    3  A    between atoms: C_4  and  C_5
REMARK    4  A    between atoms: C_5  and  C_6
REMARK    5  A    between atoms: C_6  and  C_7
REMARK    6  A    between atoms: C_7  and  C_8
REMARK    7  A    between atoms: C_9  and  C_10
REMARK    8  A    between atoms: C_10  and  C_11
REMARK    9  A    between atoms: C_11  and  C_12
REMARK   10  A    between atoms: C_12  and  C_13
REMARK   11  A    between atoms: C_14  and  C_15
REMARK   12  A    between atoms: C_15  and  O_16
REMARK                            x       y       z     vdW  Elec       q    Type
REMARK                         _______ _______ _______ _____ _____    ______ ____
ROOT
ATOM      1  C   UNL     1       2.639  -3.654   3.004  0.00  0.00    +0.000 C 
ATOM      2  C   UNL     1       3.146  -5.066   3.245  0.00  0.00    +0.000 C 
ATOM      3  C   UNL     1       1.857  -3.043   3.935  0.00  0.00    +0.000 C 
ENDROOT
BRANCH   1   4
ATOM      4  C   UNL     1       3.007  -2.923   1.723  0.00  0.00    +0.000 C 
BRANCH   4   5
ATOM      5  C   UNL     1       1.740  -2.567   0.962  0.00  0.00    +0.000 C 
BRANCH   5   9
ATOM      6  C   UNL     1       1.044   0.075   0.049  0.00  0.00    +0.000 C 
ATOM      7  C   UNL     1       0.537  -0.422   1.393  0.00  0.00    +0.000 C 
ATOM      8  C   UNL     1      -0.336   0.474   2.255  0.00  0.00    +0.000 C 
ATOM      9  C   UNL     1       0.866  -1.670   1.824  0.00  0.00    +0.000 C 
ENDBRANCH   5   9
ENDBRANCH   4   5
ENDBRANCH   1   4
BRANCH   3  10
ATOM     10  C   UNL     1       1.351  -1.631   3.694  0.00  0.00    +0.000 C 
BRANCH  10  11
ATOM     11  C   UNL     1      -0.169  -1.631   3.694  0.00  0.00    +0.000 C 
BRANCH  11  12
ATOM     12  C   UNL     1      -0.676  -2.128   5.038  0.00  0.00    +0.000 C 
ATOM     13  C   UNL     1      -1.550  -1.232   5.900  0.00  0.00    +0.000 C 
ATOM     14  C   UNL     1      -0.347  -3.376   5.469  0.00  0.00    +0.000 C 
BRANCH  14  15
ATOM     15  C   UNL     1       0.527  -4.272   4.607  0.00  0.00    +0.000 C 
BRANCH  15  16
ATOM     16  O   UNL     1       1.710  -4.605   5.318  0.00  0.00    +0.000 OA
ATOM     17  H   UNL     1       2.210  -3.769   5.543  0.00  0.00    +0.000 HD
ENDBRANCH  15  16
ENDBRANCH  14  15
ENDBRANCH  11  12
ENDBRANCH  10  11
ENDBRANCH   3  10
TORSDOF 8
