
 OpenBabel03132514253D

 42 41  0  0  0  0  0  0  0  0999 V2000
    1.0442    0.0751    0.0490 C   0  0  0  0  0  0  0  0  0  0  0  0
    0.5375   -0.4224    1.3929 C   0  0  0  0  0  0  0  0  0  0  0  0
   -0.3363    0.4740    2.2549 C   0  0  0  0  0  0  0  0  0  0  0  0
    0.8662   -1.6701    1.8242 C   0  0  0  0  0  0  0  0  0  0  0  0
    1.7401   -2.5666    0.9621 C   0  0  0  0  0  0  0  0  0  0  0  0
    3.0067   -2.9227    1.7232 C   0  0  0  0  0  0  0  0  0  0  0  0
    2.6395   -3.6535    3.0043 C   0  0  0  0  0  0  0  0  0  0  0  0
    3.1462   -5.0662    3.2454 C   0  0  0  0  0  0  0  0  0  0  0  0
    1.8574   -3.0433    3.9353 C   0  0  0  0  0  0  0  0  0  0  0  0
    1.3507   -1.6307    3.6942 C   0  0  0  0  0  0  0  0  0  0  0  0
   -0.1693   -1.6307    3.6942 C   0  0  0  0  0  0  0  0  0  0  0  0
   -0.6759   -2.1282    5.0381 C   0  0  0  0  0  0  0  0  0  0  0  0
   -1.5498   -1.2318    5.9002 C   0  0  0  0  0  0  0  0  0  0  0  0
   -0.3473   -3.3759    5.4694 C   0  0  0  0  0  0  0  0  0  0  0  0
    0.5266   -4.2724    4.6074 C   0  0  0  0  0  0  0  0  0  0  0  0
    1.7099   -4.6051    5.3183 O   0  0  0  0  0  0  0  0  0  0  0  0
    0.6875    1.0696   -0.1207 H   0  0  0  0  0  0  0  0  0  0  0  0
    0.6875   -0.5690   -0.7274 H   0  0  0  0  0  0  0  0  0  0  0  0
    2.1142    0.0751    0.0490 H   0  0  0  0  0  0  0  0  0  0  0  0
   -1.2814   -0.0001    2.4188 H   0  0  0  0  0  0  0  0  0  0  0  0
    0.1452    0.6441    3.1952 H   0  0  0  0  0  0  0  0  0  0  0  0
   -0.4879    1.4092    1.7576 H   0  0  0  0  0  0  0  0  0  0  0  0
    0.5095   -2.0204    2.7702 H   0  0  0  0  0  0  0  0  0  0  0  0
    1.2051   -3.4614    0.7215 H   0  0  0  0  0  0  0  0  0  0  0  0
    1.9986   -2.0521    0.0603 H   0  0  0  0  0  0  0  0  0  0  0  0
    3.6219   -3.5537    1.1163 H   0  0  0  0  0  0  0  0  0  0  0  0
    3.5417   -2.0278    1.9638 H   0  0  0  0  0  0  0  0  0  0  0  0
    3.7406   -5.0850    4.1349 H   0  0  0  0  0  0  0  0  0  0  0  0
    2.3140   -5.7291    3.3585 H   0  0  0  0  0  0  0  0  0  0  0  0
    3.7406   -5.3789    2.4125 H   0  0  0  0  0  0  0  0  0  0  0  0
    1.5989   -3.5578    4.8371 H   0  0  0  0  0  0  0  0  0  0  0  0
    1.7074   -0.9865    4.4706 H   0  0  0  0  0  0  0  0  0  0  0  0
    1.7074   -1.2804    2.7482 H   0  0  0  0  0  0  0  0  0  0  0  0
   -0.5259   -0.6362    3.5245 H   0  0  0  0  0  0  0  0  0  0  0  0
   -0.5259   -2.2748    2.9179 H   0  0  0  0  0  0  0  0  0  0  0  0
   -2.4949   -1.7059    6.0641 H   0  0  0  0  0  0  0  0  0  0  0  0
   -1.0682   -1.0618    6.8404 H   0  0  0  0  0  0  0  0  0  0  0  0
   -1.7014   -0.2966    5.4028 H   0  0  0  0  0  0  0  0  0  0  0  0
   -0.7040   -3.7262    6.4155 H   0  0  0  0  0  0  0  0  0  0  0  0
   -0.0084   -5.1672    4.3667 H   0  0  0  0  0  0  0  0  0  0  0  0
    0.7851   -3.7579    3.7055 H   0  0  0  0  0  0  0  0  0  0  0  0
    2.2099   -3.7688    5.5432 H   0  0  0  0  0  0  0  0  0  0  0  0
  1  2  1  0  0  0  0
  1 17  1  0  0  0  0
  1 18  1  0  0  0  0
  1 19  1  0  0  0  0
  2  3  1  0  0  0  0
  2  4  2  0  0  0  0
  3 20  1  0  0  0  0
  3 21  1  0  0  0  0
  3 22  1  0  0  0  0
  4  5  1  0  0  0  0
  4 23  1  0  0  0  0
  5  6  1  0  0  0  0
  5 24  1  0  0  0  0
  5 25  1  0  0  0  0
  6  7  1  0  0  0  0
  6 26  1  0  0  0  0
  6 27  1  0  0  0  0
  7  8  1  0  0  0  0
  7  9  2  0  0  0  0
  8 28  1  0  0  0  0
  8 29  1  0  0  0  0
  8 30  1  0  0  0  0
  9 10  1  0  0  0  0
  9 31  1  0  0  0  0
 10 11  1  0  0  0  0
 10 32  1  0  0  0  0
 10 33  1  0  0  0  0
 11 12  1  0  0  0  0
 11 34  1  0  0  0  0
 11 35  1  0  0  0  0
 12 13  1  0  0  0  0
 12 14  2  0  0  0  0
 13 36  1  0  0  0  0
 13 37  1  0  0  0  0
 13 38  1  0  0  0  0
 14 15  1  0  0  0  0
 14 39  1  0  0  0  0
 15 16  1  0  0  0  0
 15 40  1  0  0  0  0
 15 41  1  0  0  0  0
 16 42  1  0  0  0  0
M  END
