REMARK  Name = 
REMARK  27 active torsions:
REMARK  status: ('A' for Active; 'I' for Inactive)
REMARK    1  A    between atoms: C_1  and  C_2
REMARK    2  A    between atoms: C_2  and  C_3
REMARK    3  A    between atoms: C_2  and  C_4
REMARK    4  A    between atoms: C_4  and  C_6
REMARK    5  A    between atoms: C_6  and  C_7
REMARK    6  A    between atoms: C_7  and  C_8
REMARK    7  A    between atoms: C_8  and  C_9
REMARK    8  A    between atoms: C_11  and  O_12
REMARK    9  A    between atoms: C_13  and  C_14
REMARK   10  A    between atoms: C_20  and  C_21
REMARK   11  A    between atoms: C_24  and  O_25
REMARK   12  A    between atoms: O_25  and  C_26
REMARK   13  A    between atoms: C_28  and  C_29
REMARK   14  A    between atoms: C_29  and  O_30
REMARK   15  A    between atoms: C_31  and  O_32
REMARK   16  A    between atoms: C_33  and  O_34
REMARK   17  A    between atoms: C_35  and  O_36
REMARK   18  A    between atoms: O_36  and  C_37
REMARK   19  A    between atoms: C_39  and  C_40
REMARK   20  A    between atoms: C_40  and  O_41
REMARK   21  A    between atoms: C_42  and  O_43
REMARK   22  A    between atoms: C_44  and  O_45
REMARK   23  A    between atoms: C_46  and  O_47
REMARK   24  A    between atoms: C_48  and  C_49
REMARK   25  A    between atoms: C_48  and  C_50
REMARK   26  A    between atoms: C_54  and  C_55
REMARK   27  A    between atoms: C_56  and  O_57
REMARK                            x       y       z     vdW  Elec       q    Type
REMARK                         _______ _______ _______ _____ _____    ______ ____
ROOT
ATOM      1  C   UNL     1       0.090   1.241  -2.758  0.00  0.00    +0.000 C 
ATOM      2  C   UNL     1       0.926   1.168  -1.490  0.00  0.00    +0.000 C 
ATOM      3  C   UNL     1       0.320  -0.046  -3.451  0.00  0.00    +0.000 C 
ATOM      4  C   UNL     1       0.962  -1.026  -2.469  0.00  0.00    +0.000 C 
ATOM      5  C   UNL     1       2.146  -1.577  -3.049  0.00  0.00    +0.000 C 
ATOM      6  C   UNL     1       2.691  -2.347  -4.241  0.00  0.00    +0.000 C 
ATOM      7  C   UNL     1       1.338   3.325  -2.479  0.00  0.00    +0.000 C 
ATOM      8  C   UNL     1       2.620   3.626  -3.036  0.00  0.00    +0.000 C 
ATOM      9  O   UNL     1       3.022   3.152  -4.145  0.00  0.00    +0.000 OA
ATOM     10  C   UNL     1       3.410   4.506  -2.235  0.00  0.00    +0.000 C 
ATOM     11  C   UNL     1       4.886   4.346  -2.603  0.00  0.00    +0.000 C 
ATOM     12  C   UNL     1       5.453   3.279  -1.840  0.00  0.00    +0.000 C 
ATOM     13  C   UNL     1       4.406   3.769  -0.854  0.00  0.00    +0.000 C 
ATOM     14  C   UNL     1       6.853   3.089  -2.059  0.00  0.00    +0.000 C 
ATOM     15  C   UNL     1       7.318   1.830  -1.324  0.00  0.00    +0.000 C 
ATOM     16  C   UNL     1       6.784   0.675  -1.974  0.00  0.00    +0.000 C 
ATOM     17  C   UNL     1       7.051  -0.552  -1.290  0.00  0.00    +0.000 C 
ATOM     18  C   UNL     1       8.553  -0.739  -1.152  0.00  0.00    +0.000 C 
ATOM     19  C   UNL     1       6.417  -0.511   0.091  0.00  0.00    +0.000 C 
ATOM     20  C   UNL     1       6.463  -1.718  -2.087  0.00  0.00    +0.000 C 
ATOM     21  C   UNL     1       5.125  -1.966  -1.650  0.00  0.00    +0.000 C 
ATOM     22  C   UNL     1       4.299  -2.592  -2.634  0.00  0.00    +0.000 C 
ATOM     23  C   UNL     1       2.833  -2.500  -2.203  0.00  0.00    +0.000 C 
ATOM     24  C   UNL     1       2.240  -3.698  -1.480  0.00  0.00    +0.000 C 
ATOM     25  C   UNL     1       0.547   2.458  -3.461  0.00  0.00    +0.000 C 
ENDROOT
BRANCH  25  26
ATOM     26  O   UNL     1       1.370   2.100  -4.562  0.00  0.00    +0.000 OA
ATOM     27  H   UNL     1       2.164   1.589  -4.232  0.00  0.00    +0.000 HD
ENDBRANCH  25  26
BRANCH   4  28
ATOM     28  O   UNL     1       0.047  -2.073  -2.178  0.00  0.00    +0.000 OA
ATOM     29  H   UNL     1      -0.189  -2.553  -3.023  0.00  0.00    +0.000 HD
ENDBRANCH   4  28
BRANCH  16  30
ATOM     30  O   UNL     1       5.373   0.833  -1.999  0.00  0.00    +0.000 OA
BRANCH  30  31
ATOM     31  C   UNL     1       4.881   0.906  -0.669  0.00  0.00    +0.000 C 
ATOM     32  O   UNL     1       5.243  -0.376   0.083  0.00  0.00    +0.000 OA
ATOM     33  C   UNL     1       6.665  -0.500   0.155  0.00  0.00    +0.000 C 
ATOM     34  C   UNL     1       7.308   0.568   0.854  0.00  0.00    +0.000 C 
ATOM     35  C   UNL     1       7.029   1.889   0.133  0.00  0.00    +0.000 C 
ATOM     36  C   UNL     1       5.515   2.104   0.046  0.00  0.00    +0.000 C 
BRANCH  34  37
ATOM     37  O   UNL     1       8.708   0.334   0.891  0.00  0.00    +0.000 OA
ATOM     38  H   UNL     1       9.062   0.285  -0.043  0.00  0.00    +0.000 HD
ENDBRANCH  34  37
BRANCH  35  39
ATOM     39  O   UNL     1       7.582   1.845  -1.174  0.00  0.00    +0.000 OA
ATOM     40  H   UNL     1       7.168   1.093  -1.686  0.00  0.00    +0.000 HD
ENDBRANCH  35  39
BRANCH  36  41
ATOM     41  O   UNL     1       5.241   3.295  -0.678  0.00  0.00    +0.000 OA
BRANCH  41  42
ATOM     42  C   UNL     1       5.779   3.187  -1.988  0.00  0.00    +0.000 C 
ATOM     43  O   UNL     1       7.293   2.972  -1.904  0.00  0.00    +0.000 OA
ATOM     44  C   UNL     1       7.562   1.743  -1.227  0.00  0.00    +0.000 C 
ATOM     45  C   UNL     1       7.030   0.589  -1.881  0.00  0.00    +0.000 C 
ATOM     46  C   UNL     1       5.507   0.707  -1.964  0.00  0.00    +0.000 C 
ATOM     47  C   UNL     1       5.142   1.995  -2.709  0.00  0.00    +0.000 C 
BRANCH  47  48
ATOM     48  O   UNL     1       3.731   2.150  -2.737  0.00  0.00    +0.000 OA
ATOM     49  H   UNL     1       3.382   2.197  -1.801  0.00  0.00    +0.000 HD
ENDBRANCH  47  48
BRANCH  46  50
ATOM     50  O   UNL     1       4.958   0.742  -0.654  0.00  0.00    +0.000 OA
ATOM     51  H   UNL     1       5.327   1.528  -0.159  0.00  0.00    +0.000 HD
ENDBRANCH  46  50
BRANCH  45  52
ATOM     52  O   UNL     1       7.376  -0.575  -1.143  0.00  0.00    +0.000 OA
ATOM     53  H   UNL     1       6.996  -0.509  -0.221  0.00  0.00    +0.000 HD
ENDBRANCH  45  52
BRANCH  44  54
ATOM     54  C   UNL     1       6.882   1.831   0.130  0.00  0.00    +0.000 C 
BRANCH  54  55
ATOM     55  O   UNL     1       7.137   0.643   0.865  0.00  0.00    +0.000 OA
ATOM     56  H   UNL     1       6.779  -0.144   0.363  0.00  0.00    +0.000 HD
ENDBRANCH  54  55
ENDBRANCH  44  54
ENDBRANCH  41  42
ENDBRANCH  36  41
BRANCH  33  57
ATOM     57  C   UNL     1       7.182  -0.464  -1.273  0.00  0.00    +0.000 C 
BRANCH  57  58
ATOM     58  O   UNL     1       8.594  -0.611  -1.269  0.00  0.00    +0.000 OA
ATOM     59  H   UNL     1       9.006   0.136  -0.747  0.00  0.00    +0.000 HD
ENDBRANCH  57  58
ENDBRANCH  33  57
ENDBRANCH  30  31
ENDBRANCH  16  30
BRANCH   1  60
ATOM     60  C   UNL     1      -1.404   1.379  -2.517  0.00  0.00    +0.000 C 
BRANCH  60  61
ATOM     61  C   UNL     1      -1.771   0.703  -1.207  0.00  0.00    +0.000 C 
BRANCH  61  62
ATOM     62  C   UNL     1      -1.011   1.360  -0.066  0.00  0.00    +0.000 C 
ATOM     63  O   UNL     1      -1.647   1.910   0.887  0.00  0.00    +0.000 OA
BRANCH  62  65
ATOM     64  C   UNL     1       1.015  -0.073  -0.067  0.00  0.00    +0.000 C 
ATOM     65  C   UNL     1       0.509   1.360  -0.066  0.00  0.00    +0.000 C 
ATOM     66  C   UNL     1       1.015   2.077  -1.307  0.00  0.00    +0.000 C 
ENDBRANCH  62  65
ENDBRANCH  61  62
ENDBRANCH  60  61
ENDBRANCH   1  60
TORSDOF 19
