REMARK  Name = 
REMARK  15 active torsions:
REMARK  status: ('A' for Active; 'I' for Inactive)
REMARK    1  A    between atoms: C_1  and  C_2
REMARK    2  A    between atoms: C_2  and  C_3
REMARK    3  A    between atoms: C_3  and  C_4
REMARK    4  A    between atoms: C_4  and  C_5
REMARK    5  A    between atoms: C_5  and  C_6
REMARK    6  A    between atoms: C_7  and  C_8
REMARK    7  A    between atoms: C_8  and  C_9
REMARK    8  A    between atoms: C_10  and  C_11
REMARK    9  A    between atoms: C_11  and  C_12
REMARK   10  A    between atoms: C_13  and  C_14
REMARK   11  A    between atoms: C_14  and  C_15
REMARK   12  A    between atoms: C_15  and  C_16
REMARK   13  A    between atoms: C_16  and  C_17
REMARK   14  A    between atoms: C_17  and  C_18
REMARK   15  A    between atoms: C_18  and  O_20
REMARK                            x       y       z     vdW  Elec       q    Type
REMARK                         _______ _______ _______ _____ _____    ______ ____
ROOT
ATOM      1  C   UNL     1      -2.627   3.262  -9.041  0.00  0.00    +0.000 C 
ENDROOT
BRANCH   1   3
ATOM      2  C   UNL     1      -2.249   3.039  -6.584  0.00  0.00    +0.000 C 
ATOM      3  C   UNL     1      -3.133   3.132  -7.614  0.00  0.00    +0.000 C 
BRANCH   2   4
ATOM      4  C   UNL     1      -2.756   2.910  -5.157  0.00  0.00    +0.000 C 
BRANCH   4   6
ATOM      5  C   UNL     1      -1.467   1.633  -3.443  0.00  0.00    +0.000 C 
ATOM      6  C   UNL     1      -2.249   1.609  -4.555  0.00  0.00    +0.000 C 
BRANCH   5   7
ATOM      7  C   UNL     1      -0.961   0.333  -2.841  0.00  0.00    +0.000 C 
BRANCH   7   8
ATOM      8  C   UNL     1       0.559   0.333  -2.841  0.00  0.00    +0.000 C 
BRANCH   8   9
ATOM      9  C   UNL     1       1.066   1.504  -2.015  0.00  0.00    +0.000 C 
BRANCH   9  11
ATOM     10  C   UNL     1       1.066   0.074   0.013  0.00  0.00    +0.000 C 
ATOM     11  C   UNL     1       0.559   1.375  -0.588  0.00  0.00    +0.000 C 
ENDBRANCH   9  11
ENDBRANCH   8   9
ENDBRANCH   7   8
ENDBRANCH   5   7
ENDBRANCH   4   6
ENDBRANCH   2   4
ENDBRANCH   1   3
BRANCH   1  12
ATOM     12  C   UNL     1      -3.133   2.091  -9.867  0.00  0.00    +0.000 C 
ATOM     13  C   UNL     1      -3.915   2.315 -10.957  0.00  0.00    +0.000 C 
BRANCH  13  14
ATOM     14  C   UNL     1      -4.422   1.143 -11.783  0.00  0.00    +0.000 C 
BRANCH  14  15
ATOM     15  C   UNL     1      -5.942   1.143 -11.783  0.00  0.00    +0.000 C 
BRANCH  15  16
ATOM     16  C   UNL     1      -6.449   2.444 -12.384  0.00  0.00    +0.000 C 
BRANCH  16  17
ATOM     17  C   UNL     1      -5.942   2.574 -13.812  0.00  0.00    +0.000 C 
BRANCH  17  18
ATOM     18  C   UNL     1      -6.449   1.402 -14.637  0.00  0.00    +0.000 C 
ATOM     19  O   UNL     1      -7.179   1.612 -15.656  0.00  0.00    +0.000 OA
BRANCH  18  20
ATOM     20  O   UNL     1      -6.106   0.074 -14.271  0.00  0.00    +0.000 OA
ATOM     21  H   UNL     1      -6.439  -0.697 -14.814  0.00  0.00    +0.000 HD
ENDBRANCH  18  20
ENDBRANCH  17  18
ENDBRANCH  16  17
ENDBRANCH  15  16
ENDBRANCH  14  15
ENDBRANCH  13  14
ENDBRANCH   1  12
TORSDOF 14
