REMARK  Name = 
REMARK  6 active torsions:
REMARK  status: ('A' for Active; 'I' for Inactive)
REMARK    1  A    between atoms: C_1  and  O_2
REMARK    2  A    between atoms: O_2  and  C_3
REMARK    3  A    between atoms: N_11  and  C_12
REMARK    4  A    between atoms: C_15  and  O_16
REMARK    5  A    between atoms: O_16  and  C_17
REMARK    6  A    between atoms: C_17  and  C_18
REMARK                            x       y       z     vdW  Elec       q    Type
REMARK                         _______ _______ _______ _____ _____    ______ ____
ROOT
ATOM      1  C   UNL     1       0.903   0.954   2.192  0.00  0.00    +0.000 A 
ATOM      2  C   UNL     1       2.231   0.696   2.584  0.00  0.00    +0.000 A 
ATOM      3  C   UNL     1       2.583   0.696   3.905  0.00  0.00    +0.000 A 
ATOM      4  C   UNL     1       1.620   0.984   4.897  0.00  0.00    +0.000 A 
ATOM      5  N   UNL     1       1.989   1.012   6.218  0.00  0.00    +0.000 NA
ATOM      6  C   UNL     1       1.048   1.283   7.080  0.00  0.00    +0.000 A 
ATOM      7  N   UNL     1      -0.271   1.526   6.808  0.00  0.00    +0.000 NA
ATOM      8  C   UNL     1      -0.641   1.488   5.550  0.00  0.00    +0.000 A 
ATOM      9  N   UNL     1      -2.054   1.718   5.215  0.00  0.00    +0.000 N 
ATOM     10  C   UNL     1       0.286   1.230   4.501  0.00  0.00    +0.000 A 
ATOM     11  C   UNL     1      -0.057   1.210   3.130  0.00  0.00    +0.000 A 
ATOM     12  H   UNL     1      -2.358   1.692   4.241  0.00  0.00    +0.000 HD
ENDROOT
BRANCH   9  13
ATOM     13  C   UNL     1      -3.029   1.986   6.282  0.00  0.00    +0.000 A 
ATOM     14  C   UNL     1      -4.116   1.140   6.432  0.00  0.00    +0.000 A 
ATOM     15  C   UNL     1      -5.136   1.661   7.262  0.00  0.00    +0.000 A 
ATOM     16  C   UNL     1      -4.975   2.658   8.112  0.00  0.00    +0.000 A 
ATOM     17  C   UNL     1      -3.846   3.414   7.955  0.00  0.00    +0.000 A 
ATOM     18  C   UNL     1      -2.864   3.042   7.069  0.00  0.00    +0.000 A 
BRANCH  16  19
ATOM     19  O   UNL     1      -5.921   2.931   9.135  0.00  0.00    +0.000 OA
BRANCH  19  20
ATOM     20  C   UNL     1      -5.709   4.013  10.029  0.00  0.00    +0.000 C 
BRANCH  20  21
ATOM     21  C   UNL     1      -4.406   3.801  10.782  0.00  0.00    +0.000 A 
ATOM     22  C   UNL     1      -3.965   2.510  11.024  0.00  0.00    +0.000 A 
ATOM     23  C   UNL     1      -2.921   2.430  11.975  0.00  0.00    +0.000 A 
ATOM     24  C   UNL     1      -2.167   3.448  12.348  0.00  0.00    +0.000 A 
ATOM     25  C   UNL     1      -2.623   4.694  12.019  0.00  0.00    +0.000 A 
ATOM     26  C   UNL     1      -3.714   4.855  11.200  0.00  0.00    +0.000 A 
ENDBRANCH  20  21
ENDBRANCH  19  20
ENDBRANCH  16  19
ENDBRANCH   9  13
BRANCH   1  28
ATOM     27  C   UNL     1       1.033  -0.089  -0.031  0.00  0.00    +0.000 C 
ATOM     28  O   UNL     1       0.560   0.949   0.815  0.00  0.00    +0.000 OA
ENDBRANCH   1  28
TORSDOF 5
