REMARK  Name = 
REMARK  38 active torsions:
REMARK  status: ('A' for Active; 'I' for Inactive)
REMARK    1  A    between atoms: C_1  and  C_2
REMARK    2  A    between atoms: C_2  and  C_3
REMARK    3  A    between atoms: C_4  and  C_5
REMARK    4  A    between atoms: C_5  and  C_6
REMARK    5  A    between atoms: C_6  and  C_7
REMARK    6  A    between atoms: C_7  and  C_8
REMARK    7  A    between atoms: C_7  and  O_9
REMARK    8  A    between atoms: C_7  and  C_30
REMARK    9  A    between atoms: O_9  and  C_10
REMARK   10  A    between atoms: C_12  and  C_13
REMARK   11  A    between atoms: C_13  and  O_14
REMARK   12  A    between atoms: O_14  and  C_15
REMARK   13  A    between atoms: C_17  and  C_18
REMARK   14  A    between atoms: C_18  and  O_19
REMARK   15  A    between atoms: C_20  and  O_21
REMARK   16  A    between atoms: C_22  and  O_23
REMARK   17  A    between atoms: C_24  and  O_25
REMARK   18  A    between atoms: C_26  and  O_27
REMARK   19  A    between atoms: C_28  and  O_29
REMARK   20  A    between atoms: C_33  and  C_34
REMARK   21  A    between atoms: C_36  and  O_37
REMARK   22  A    between atoms: C_40  and  C_41
REMARK   23  A    between atoms: C_44  and  O_45
REMARK   24  A    between atoms: O_45  and  C_46
REMARK   25  A    between atoms: C_48  and  C_49
REMARK   26  A    between atoms: C_49  and  O_50
REMARK   27  A    between atoms: C_51  and  O_52
REMARK   28  A    between atoms: C_53  and  O_54
REMARK   29  A    between atoms: C_55  and  O_56
REMARK   30  A    between atoms: O_56  and  C_57
REMARK   31  A    between atoms: C_59  and  C_60
REMARK   32  A    between atoms: C_60  and  O_61
REMARK   33  A    between atoms: C_62  and  O_63
REMARK   34  A    between atoms: C_64  and  O_65
REMARK   35  A    between atoms: C_66  and  O_67
REMARK   36  A    between atoms: C_68  and  C_69
REMARK   37  A    between atoms: C_68  and  C_70
REMARK   38  A    between atoms: C_74  and  C_75
REMARK                            x       y       z     vdW  Elec       q    Type
REMARK                         _______ _______ _______ _____ _____    ______ ____
ROOT
ATOM      1  C   UNL     1       1.667  -2.941  -3.793  0.00  0.00    +0.000 C 
ATOM      2  C   UNL     1       0.400  -2.296  -3.254  0.00  0.00    +0.000 C 
ATOM      3  C   UNL     1      -0.360  -1.641  -4.396  0.00  0.00    +0.000 C 
ATOM      4  C   UNL     1      -0.727  -2.693  -5.430  0.00  0.00    +0.000 C 
ATOM      5  C   UNL     1      -1.537  -1.998  -6.512  0.00  0.00    +0.000 C 
ATOM      6  C   UNL     1       0.458  -3.324  -6.164  0.00  0.00    +0.000 C 
ATOM      7  C   UNL     1       1.285  -4.017  -5.226  0.00  0.00    +0.000 C 
ATOM      8  C   UNL     1       0.624  -5.084  -4.543  0.00  0.00    +0.000 C 
ATOM      9  C   UNL     1      -0.555  -4.524  -3.744  0.00  0.00    +0.000 C 
ATOM     10  C   UNL     1      -0.044  -3.559  -2.687  0.00  0.00    +0.000 C 
ATOM     11  C   UNL     1       0.894  -4.237  -1.702  0.00  0.00    +0.000 C 
ATOM     12  C   UNL     1       0.609  -2.443  -3.507  0.00  0.00    +0.000 C 
ATOM     13  C   UNL     1      -0.376  -1.829  -4.341  0.00  0.00    +0.000 C 
ATOM     14  C   UNL     1      -1.451  -1.221  -3.624  0.00  0.00    +0.000 C 
ATOM     15  C   UNL     1      -2.187  -2.287  -2.808  0.00  0.00    +0.000 C 
ATOM     16  C   UNL     1      -2.794  -3.318  -3.745  0.00  0.00    +0.000 C 
ATOM     17  C   UNL     1      -3.294  -1.633  -1.998  0.00  0.00    +0.000 C 
ATOM     18  C   UNL     1      -1.194  -2.970  -1.863  0.00  0.00    +0.000 C 
ATOM     19  C   UNL     1      -1.895  -4.079  -1.096  0.00  0.00    +0.000 C 
ATOM     20  C   UNL     1      -2.645  -3.170  -3.905  0.00  0.00    +0.000 C 
ATOM     21  C   UNL     1      -1.505  -3.790  -4.696  0.00  0.00    +0.000 C 
ATOM     22  C   UNL     1      -2.074  -4.774  -5.705  0.00  0.00    +0.000 C 
ENDROOT
BRANCH   7  23
ATOM     23  O   UNL     1       1.664  -3.071  -4.237  0.00  0.00    +0.000 OA
ATOM     24  H   UNL     1       0.847  -2.724  -3.777  0.00  0.00    +0.000 HD
ENDBRANCH   7  23
BRANCH   1  25
ATOM     25  C   UNL     1       2.541  -1.879  -4.439  0.00  0.00    +0.000 C 
ATOM     26  C   UNL     1       1.781  -1.223  -5.581  0.00  0.00    +0.000 C 
BRANCH  25  27
ATOM     27  O   UNL     1       3.724  -2.481  -4.942  0.00  0.00    +0.000 OA
BRANCH  27  28
ATOM     28  C   UNL     1       4.540  -1.488  -5.546  0.00  0.00    +0.000 C 
ATOM     29  O   UNL     1       4.171  -0.637  -6.763  0.00  0.00    +0.000 OA
ATOM     30  C   UNL     1       3.175   0.318  -6.391  0.00  0.00    +0.000 C 
ATOM     31  C   UNL     1       3.594   1.232  -5.376  0.00  0.00    +0.000 C 
ATOM     32  C   UNL     1       3.940   0.456  -4.103  0.00  0.00    +0.000 C 
ATOM     33  C   UNL     1       5.031  -0.571  -4.422  0.00  0.00    +0.000 C 
BRANCH  33  34
ATOM     34  O   UNL     1       5.316  -1.342  -3.264  0.00  0.00    +0.000 OA
ATOM     35  H   UNL     1       4.488  -1.818  -2.968  0.00  0.00    +0.000 HD
ENDBRANCH  33  34
BRANCH  32  36
ATOM     36  O   UNL     1       2.783  -0.210  -3.620  0.00  0.00    +0.000 OA
ATOM     37  H   UNL     1       2.449  -0.845  -4.317  0.00  0.00    +0.000 HD
ENDBRANCH  32  36
BRANCH  31  38
ATOM     38  O   UNL     1       2.545   2.149  -5.101  0.00  0.00    +0.000 OA
ATOM     39  H   UNL     1       1.739   1.648  -4.787  0.00  0.00    +0.000 HD
ENDBRANCH  31  38
BRANCH  30  40
ATOM     40  C   UNL     1       2.006  -0.467  -5.819  0.00  0.00    +0.000 C 
BRANCH  40  41
ATOM     41  O   UNL     1       0.967   0.429  -5.454  0.00  0.00    +0.000 OA
BRANCH  41  42
ATOM     42  C   UNL     1       1.449   1.340  -4.477  0.00  0.00    +0.000 C 
ATOM     43  O   UNL     1       1.313   2.794  -4.992  0.00  0.00    +0.000 OA
ATOM     44  C   UNL     1       1.217   3.612  -3.676  0.00  0.00    +0.000 C 
ATOM     45  C   UNL     1       0.368   2.726  -2.740  0.00  0.00    +0.000 C 
ATOM     46  C   UNL     1       0.516   1.282  -3.249  0.00  0.00    +0.000 C 
BRANCH  46  47
ATOM     47  O   UNL     1      -0.746   0.728  -3.591  0.00  0.00    +0.000 OA
ATOM     48  H   UNL     1      -1.173   1.285  -4.303  0.00  0.00    +0.000 HD
ENDBRANCH  46  47
BRANCH  45  49
ATOM     49  O   UNL     1      -0.992   3.134  -2.742  0.00  0.00    +0.000 OA
ATOM     50  H   UNL     1      -1.356   3.073  -3.672  0.00  0.00    +0.000 HD
ENDBRANCH  45  49
BRANCH  44  51
ATOM     51  C   UNL     1       0.604   4.987  -3.890  0.00  0.00    +0.000 C 
BRANCH  51  52
ATOM     52  O   UNL     1       0.519   5.665  -2.645  0.00  0.00    +0.000 OA
ATOM     53  H   UNL     1      -0.054   5.139  -2.017  0.00  0.00    +0.000 HD
ENDBRANCH  51  52
ENDBRANCH  44  51
ENDBRANCH  41  42
ENDBRANCH  40  41
ENDBRANCH  30  40
ENDBRANCH  27  28
ENDBRANCH  25  27
BRANCH  25  54
ATOM     54  C   UNL     1       2.908  -0.827  -3.405  0.00  0.00    +0.000 C 
BRANCH  54  55
ATOM     55  C   UNL     1       1.641  -0.182  -2.867  0.00  0.00    +0.000 C 
BRANCH  55  59
ATOM     56  C   UNL     1       0.945   0.026  -0.079  0.00  0.00    +0.000 C 
ATOM     57  C   UNL     1       0.439  -1.146  -0.904  0.00  0.00    +0.000 C 
ATOM     58  C   UNL     1      -0.435  -2.208  -0.257  0.00  0.00    +0.000 C 
ATOM     59  C   UNL     1       0.767  -1.244  -2.220  0.00  0.00    +0.000 C 
ENDBRANCH  55  59
ENDBRANCH  54  55
ENDBRANCH  25  54
ENDBRANCH   1  25
BRANCH  14  60
ATOM     60  O   UNL     1      -2.353  -0.620  -4.542  0.00  0.00    +0.000 OA
BRANCH  60  61
ATOM     61  C   UNL     1      -2.869  -1.613  -5.416  0.00  0.00    +0.000 C 
ATOM     62  O   UNL     1      -1.899  -2.344  -6.347  0.00  0.00    +0.000 OA
ATOM     63  C   UNL     1      -0.975  -3.106  -5.568  0.00  0.00    +0.000 C 
ATOM     64  C   UNL     1      -1.586  -4.112  -4.759  0.00  0.00    +0.000 C 
ATOM     65  C   UNL     1      -2.544  -3.453  -3.763  0.00  0.00    +0.000 C 
ATOM     66  C   UNL     1      -3.588  -2.639  -4.534  0.00  0.00    +0.000 C 
BRANCH  65  67
ATOM     67  O   UNL     1      -1.815  -2.597  -2.895  0.00  0.00    +0.000 OA
ATOM     68  H   UNL     1      -1.356  -1.890  -3.433  0.00  0.00    +0.000 HD
ENDBRANCH  65  67
BRANCH  64  69
ATOM     69  O   UNL     1      -0.583  -4.824  -4.050  0.00  0.00    +0.000 OA
ATOM     70  H   UNL     1      -0.073  -4.191  -3.467  0.00  0.00    +0.000 HD
ENDBRANCH  64  69
BRANCH  63  71
ATOM     71  C   UNL     1      -0.294  -2.134  -4.620  0.00  0.00    +0.000 C 
BRANCH  71  72
ATOM     72  O   UNL     1       0.661  -2.830  -3.833  0.00  0.00    +0.000 OA
ATOM     73  H   UNL     1       0.202  -3.544  -3.305  0.00  0.00    +0.000 HD
ENDBRANCH  71  72
ENDBRANCH  63  71
BRANCH  66  74
ATOM     74  O   UNL     1      -4.444  -1.969  -3.620  0.00  0.00    +0.000 OA
BRANCH  74  75
ATOM     75  C   UNL     1      -3.675  -1.099  -2.802  0.00  0.00    +0.000 C 
ATOM     76  O   UNL     1      -2.649  -2.092  -2.250  0.00  0.00    +0.000 OA
ATOM     77  C   UNL     1      -1.948  -2.704  -3.335  0.00  0.00    +0.000 C 
ATOM     78  C   UNL     1      -1.217  -1.786  -4.149  0.00  0.00    +0.000 C 
ATOM     79  C   UNL     1      -2.185  -0.780  -4.778  0.00  0.00    +0.000 C 
ATOM     80  C   UNL     1      -2.954  -0.059  -3.666  0.00  0.00    +0.000 C 
BRANCH  80  81
ATOM     81  O   UNL     1      -3.901   0.830  -4.238  0.00  0.00    +0.000 OA
ATOM     82  H   UNL     1      -4.543   0.314  -4.805  0.00  0.00    +0.000 HD
ENDBRANCH  80  81
BRANCH  79  83
ATOM     83  O   UNL     1      -3.098  -1.462  -5.625  0.00  0.00    +0.000 OA
ATOM     84  H   UNL     1      -3.614  -2.131  -5.089  0.00  0.00    +0.000 HD
ENDBRANCH  79  83
BRANCH  78  85
ATOM     85  O   UNL     1      -0.540  -2.497  -5.175  0.00  0.00    +0.000 OA
ATOM     86  H   UNL     1      -1.207  -2.985  -5.738  0.00  0.00    +0.000 HD
ENDBRANCH  78  85
BRANCH  77  87
ATOM     87  C   UNL     1      -2.997  -3.345  -4.229  0.00  0.00    +0.000 C 
BRANCH  87  88
ATOM     88  O   UNL     1      -2.358  -3.997  -5.316  0.00  0.00    +0.000 OA
ATOM     89  H   UNL     1      -1.833  -3.329  -5.844  0.00  0.00    +0.000 HD
ENDBRANCH  87  88
ENDBRANCH  77  87
ENDBRANCH  74  75
ENDBRANCH  66  74
ENDBRANCH  60  61
ENDBRANCH  14  60
TORSDOF 30
