REMARK  Name = 
REMARK  21 active torsions:
REMARK  status: ('A' for Active; 'I' for Inactive)
REMARK    1  A    between atoms: C_1  and  C_2
REMARK    2  A    between atoms: C_2  and  C_3
REMARK    3  A    between atoms: C_4  and  C_5
REMARK    4  A    between atoms: C_5  and  C_6
REMARK    5  A    between atoms: C_6  and  C_7
REMARK    6  A    between atoms: C_7  and  C_8
REMARK    7  A    between atoms: C_7  and  O_9
REMARK    8  A    between atoms: C_7  and  C_10
REMARK    9  A    between atoms: C_13  and  C_14
REMARK   10  A    between atoms: C_16  and  O_17
REMARK   11  A    between atoms: C_20  and  C_21
REMARK   12  A    between atoms: C_24  and  O_25
REMARK   13  A    between atoms: O_25  and  C_26
REMARK   14  A    between atoms: C_28  and  C_29
REMARK   15  A    between atoms: C_29  and  O_30
REMARK   16  A    between atoms: C_31  and  O_32
REMARK   17  A    between atoms: C_33  and  O_34
REMARK   18  A    between atoms: C_35  and  O_36
REMARK   19  A    between atoms: C_37  and  C_38
REMARK   20  A    between atoms: C_37  and  C_39
REMARK   21  A    between atoms: C_43  and  C_44
REMARK                            x       y       z     vdW  Elec       q    Type
REMARK                         _______ _______ _______ _____ _____    ______ ____
ROOT
ATOM      1  C   UNL     1       1.680   1.559  -4.395  0.00  0.00    +0.000 C 
ATOM      2  C   UNL     1       0.514   2.334  -5.012  0.00  0.00    +0.000 C 
ATOM      3  C   UNL     1       0.429   3.722  -4.372  0.00  0.00    +0.000 C 
ATOM      4  C   UNL     1       0.692   4.790  -5.435  0.00  0.00    +0.000 C 
ATOM      5  C   UNL     1       0.026   5.634  -6.510  0.00  0.00    +0.000 C 
ATOM      6  C   UNL     1       2.298   0.640  -5.451  0.00  0.00    +0.000 C 
ATOM      7  C   UNL     1       3.755   0.349  -5.085  0.00  0.00    +0.000 C 
ATOM      8  C   UNL     1       4.593   0.253  -6.361  0.00  0.00    +0.000 C 
ATOM      9  C   UNL     1       5.940   0.943  -6.139  0.00  0.00    +0.000 C 
ATOM     10  C   UNL     1       6.199   1.935  -7.275  0.00  0.00    +0.000 C 
ATOM     11  C   UNL     1       6.287   0.871  -8.358  0.00  0.00    +0.000 C 
ATOM     12  C   UNL     1       6.900   3.175  -6.718  0.00  0.00    +0.000 C 
ATOM     13  C   UNL     1       6.498   4.384  -7.524  0.00  0.00    +0.000 C 
ATOM     14  C   UNL     1       5.353   5.027  -7.244  0.00  0.00    +0.000 C 
ATOM     15  C   UNL     1       5.035   6.191  -8.051  0.00  0.00    +0.000 C 
ATOM     16  C   UNL     1       6.312   6.947  -8.376  0.00  0.00    +0.000 C 
ATOM     17  C   UNL     1       4.369   5.746  -9.343  0.00  0.00    +0.000 C 
ATOM     18  C   UNL     1       4.084   7.103  -7.273  0.00  0.00    +0.000 C 
ATOM     19  C   UNL     1       3.431   6.338  -6.226  0.00  0.00    +0.000 C 
ATOM     20  C   UNL     1       2.190   6.715  -5.878  0.00  0.00    +0.000 C 
ATOM     21  C   UNL     1       1.448   5.961  -4.805  0.00  0.00    +0.000 C 
ATOM     22  C   UNL     1       0.889   6.814  -3.677  0.00  0.00    +0.000 C 
ENDROOT
BRANCH   1  23
ATOM     23  C   UNL     1       2.554   2.667  -3.830  0.00  0.00    +0.000 C 
ATOM     24  C   UNL     1       1.794   3.982  -3.873  0.00  0.00    +0.000 C 
BRANCH  23  25
ATOM     25  O   UNL     1       3.737   2.779  -4.607  0.00  0.00    +0.000 OA
ATOM     26  H   UNL     1       4.312   3.508  -4.236  0.00  0.00    +0.000 HD
ENDBRANCH  23  25
BRANCH  23  27
ATOM     27  C   UNL     1       2.921   2.339  -2.392  0.00  0.00    +0.000 C 
BRANCH  27  28
ATOM     28  C   UNL     1       1.655   2.220  -1.561  0.00  0.00    +0.000 C 
BRANCH  28  32
ATOM     29  C   UNL     1       0.959  -0.043   0.080  0.00  0.00    +0.000 C 
ATOM     30  C   UNL     1       0.452   0.043  -1.350  0.00  0.00    +0.000 C 
ATOM     31  C   UNL     1      -0.422  -1.065  -1.915  0.00  0.00    +0.000 C 
ATOM     32  C   UNL     1       0.781   1.111  -2.125  0.00  0.00    +0.000 C 
ENDBRANCH  28  32
ENDBRANCH  27  28
ENDBRANCH  23  27
ENDBRANCH   1  23
BRANCH   7  33
ATOM     33  O   UNL     1       4.256   1.396  -4.268  0.00  0.00    +0.000 OA
ATOM     34  H   UNL     1       4.204   2.262  -4.766  0.00  0.00    +0.000 HD
ENDBRANCH   7  33
BRANCH  14  35
ATOM     35  O   UNL     1       4.326   4.089  -7.530  0.00  0.00    +0.000 OA
BRANCH  35  36
ATOM     36  C   UNL     1       4.366   3.748  -8.908  0.00  0.00    +0.000 C 
ATOM     37  O   UNL     1       4.163   5.009  -9.752  0.00  0.00    +0.000 OA
ATOM     38  C   UNL     1       5.232   5.925  -9.504  0.00  0.00    +0.000 C 
ATOM     39  C   UNL     1       6.524   5.419  -9.845  0.00  0.00    +0.000 C 
ATOM     40  C   UNL     1       6.822   4.175  -9.004  0.00  0.00    +0.000 C 
ATOM     41  C   UNL     1       5.727   3.131  -9.245  0.00  0.00    +0.000 C 
BRANCH  39  42
ATOM     42  O   UNL     1       7.505   6.412  -9.585  0.00  0.00    +0.000 OA
ATOM     43  H   UNL     1       7.487   6.653  -8.615  0.00  0.00    +0.000 HD
ENDBRANCH  39  42
BRANCH  40  44
ATOM     44  O   UNL     1       6.854   4.524  -7.628  0.00  0.00    +0.000 OA
ATOM     45  H   UNL     1       5.968   4.903  -7.360  0.00  0.00    +0.000 HD
ENDBRANCH  40  44
BRANCH  41  46
ATOM     46  O   UNL     1       5.956   1.997  -8.423  0.00  0.00    +0.000 OA
ATOM     47  H   UNL     1       5.945   2.274  -7.462  0.00  0.00    +0.000 HD
ENDBRANCH  41  46
BRANCH  38  48
ATOM     48  C   UNL     1       5.245   6.188  -8.007  0.00  0.00    +0.000 C 
BRANCH  48  49
ATOM     49  O   UNL     1       6.274   7.117  -7.699  0.00  0.00    +0.000 OA
ATOM     50  H   UNL     1       7.157   6.742  -7.979  0.00  0.00    +0.000 HD
ENDBRANCH  48  49
ENDBRANCH  38  48
ENDBRANCH  35  36
ENDBRANCH  14  35
TORSDOF 13
