
 OpenBabel03132514253D

165172  0  0  0  0  0  0  0  0999 V2000
    0.9453    0.0265   -0.0794 C   0  0  0  0  0  0  0  0  0  0  0  0
    0.4387   -1.1458   -0.9037 C   0  0  0  0  0  0  0  0  0  0  0  0
   -0.4352   -2.2082   -0.2572 C   0  0  0  0  0  0  0  0  0  0  0  0
    0.7673   -1.2441   -2.2202 C   0  0  0  0  0  0  0  0  0  0  0  0
    1.6412   -0.1817   -2.8667 C   0  0  0  0  0  0  0  0  0  0  0  0
    2.9078   -0.8265   -3.4054 C   0  0  0  0  0  0  0  0  0  0  0  0
    2.5406   -1.8785   -4.4393 C   0  0  0  0  0  0  0  0  0  0  0  0
    1.7806   -1.2233   -5.5810 C   0  0  0  0  0  0  0  0  0  0  0  0
    3.7240   -2.4809   -4.9425 O   0  0  0  0  0  0  0  0  0  0  0  0
    4.5403   -1.4884   -5.5465 C   0  0  0  0  0  0  0  0  0  0  0  0
    4.1709   -0.6368   -6.7633 O   0  0  0  0  0  0  0  0  0  0  0  0
    3.1749    0.3182   -6.3911 C   0  0  0  0  0  0  0  0  0  0  0  0
    2.0064   -0.4674   -5.8185 C   0  0  0  0  0  0  0  0  0  0  0  0
    0.9670    0.4287   -5.4536 O   0  0  0  0  0  0  0  0  0  0  0  0
    1.4488    1.3399   -4.4769 C   0  0  0  0  0  0  0  0  0  0  0  0
    1.3129    2.7939   -4.9916 O   0  0  0  0  0  0  0  0  0  0  0  0
    1.2166    3.6121   -3.6763 C   0  0  0  0  0  0  0  0  0  0  0  0
    0.6040    4.9867   -3.8896 C   0  0  0  0  0  0  0  0  0  0  0  0
    0.5189    5.6652   -2.6451 O   0  0  0  0  0  0  0  0  0  0  0  0
    0.3684    2.7260   -2.7400 C   0  0  0  0  0  0  0  0  0  0  0  0
   -0.9919    3.1335   -2.7424 O   0  0  0  0  0  0  0  0  0  0  0  0
    0.5162    1.2815   -3.2494 C   0  0  0  0  0  0  0  0  0  0  0  0
   -0.7458    0.7275   -3.5913 O   0  0  0  0  0  0  0  0  0  0  0  0
    3.5941    1.2321   -5.3760 C   0  0  0  0  0  0  0  0  0  0  0  0
    2.5449    2.1488   -5.1015 O   0  0  0  0  0  0  0  0  0  0  0  0
    3.9402    0.4561   -4.1031 C   0  0  0  0  0  0  0  0  0  0  0  0
    2.7830   -0.2102   -3.6202 O   0  0  0  0  0  0  0  0  0  0  0  0
    5.0311   -0.5710   -4.4217 C   0  0  0  0  0  0  0  0  0  0  0  0
    5.3162   -1.3423   -3.2640 O   0  0  0  0  0  0  0  0  0  0  0  0
    1.6668   -2.9409   -3.7927 C   0  0  0  0  0  0  0  0  0  0  0  0
    0.4001   -2.2961   -3.2540 C   0  0  0  0  0  0  0  0  0  0  0  0
   -0.3599   -1.6409   -4.3957 C   0  0  0  0  0  0  0  0  0  0  0  0
   -0.7271   -2.6929   -5.4296 C   0  0  0  0  0  0  0  0  0  0  0  0
   -1.5372   -1.9982   -6.5119 C   0  0  0  0  0  0  0  0  0  0  0  0
    0.4584   -3.3237   -6.1638 C   0  0  0  0  0  0  0  0  0  0  0  0
    1.2848   -4.0166   -5.2260 C   0  0  0  0  0  0  0  0  0  0  0  0
    1.6644   -3.0707   -4.2373 O   0  0  0  0  0  0  0  0  0  0  0  0
    0.6238   -5.0836   -4.5433 C   0  0  0  0  0  0  0  0  0  0  0  0
   -0.5550   -4.5240   -3.7436 C   0  0  0  0  0  0  0  0  0  0  0  0
   -0.0436   -3.5587   -2.6867 C   0  0  0  0  0  0  0  0  0  0  0  0
    0.8945   -4.2374   -1.7019 C   0  0  0  0  0  0  0  0  0  0  0  0
    0.6085   -2.4432   -3.5069 C   0  0  0  0  0  0  0  0  0  0  0  0
   -0.3756   -1.8287   -4.3415 C   0  0  0  0  0  0  0  0  0  0  0  0
   -1.4511   -1.2206   -3.6239 C   0  0  0  0  0  0  0  0  0  0  0  0
   -2.3532   -0.6202   -4.5416 O   0  0  0  0  0  0  0  0  0  0  0  0
   -2.8692   -1.6129   -5.4162 C   0  0  0  0  0  0  0  0  0  0  0  0
   -1.8991   -2.3437   -6.3474 O   0  0  0  0  0  0  0  0  0  0  0  0
   -0.9750   -3.1064   -5.5683 C   0  0  0  0  0  0  0  0  0  0  0  0
   -0.2940   -2.1336   -4.6195 C   0  0  0  0  0  0  0  0  0  0  0  0
    0.6613   -2.8301   -3.8329 O   0  0  0  0  0  0  0  0  0  0  0  0
   -1.5863   -4.1124   -4.7586 C   0  0  0  0  0  0  0  0  0  0  0  0
   -0.5827   -4.8245   -4.0500 O   0  0  0  0  0  0  0  0  0  0  0  0
   -2.5436   -3.4530   -3.7631 C   0  0  0  0  0  0  0  0  0  0  0  0
   -1.8154   -2.5967   -2.8954 O   0  0  0  0  0  0  0  0  0  0  0  0
   -3.5876   -2.6389   -4.5338 C   0  0  0  0  0  0  0  0  0  0  0  0
   -4.4436   -1.9693   -3.6198 O   0  0  0  0  0  0  0  0  0  0  0  0
   -3.6751   -1.0990   -2.8023 C   0  0  0  0  0  0  0  0  0  0  0  0
   -2.6494   -2.0916   -2.2501 O   0  0  0  0  0  0  0  0  0  0  0  0
   -1.9483   -2.7041   -3.3346 C   0  0  0  0  0  0  0  0  0  0  0  0
   -2.9972   -3.3445   -4.2289 C   0  0  0  0  0  0  0  0  0  0  0  0
   -2.3578   -3.9969   -5.3161 O   0  0  0  0  0  0  0  0  0  0  0  0
   -1.2173   -1.7856   -4.1491 C   0  0  0  0  0  0  0  0  0  0  0  0
   -0.5404   -2.4971   -5.1748 O   0  0  0  0  0  0  0  0  0  0  0  0
   -2.1851   -0.7805   -4.7781 C   0  0  0  0  0  0  0  0  0  0  0  0
   -3.0983   -1.4625   -5.6251 O   0  0  0  0  0  0  0  0  0  0  0  0
   -2.9535   -0.0594   -3.6662 C   0  0  0  0  0  0  0  0  0  0  0  0
   -3.9013    0.8302   -4.2377 O   0  0  0  0  0  0  0  0  0  0  0  0
   -2.1866   -2.2866   -2.8084 C   0  0  0  0  0  0  0  0  0  0  0  0
   -2.7936   -3.3185   -3.7449 C   0  0  0  0  0  0  0  0  0  0  0  0
   -3.2936   -1.6328   -1.9975 C   0  0  0  0  0  0  0  0  0  0  0  0
   -1.1935   -2.9698   -1.8629 C   0  0  0  0  0  0  0  0  0  0  0  0
   -1.8953   -4.0785   -1.0956 C   0  0  0  0  0  0  0  0  0  0  0  0
   -2.6451   -3.1696   -3.9049 C   0  0  0  0  0  0  0  0  0  0  0  0
   -1.5048   -3.7902   -4.6955 C   0  0  0  0  0  0  0  0  0  0  0  0
   -2.0742   -4.7735   -5.7051 C   0  0  0  0  0  0  0  0  0  0  0  0
    0.5887   -0.0634    0.9254 H   0  0  0  0  0  0  0  0  0  0  0  0
    0.5887    0.9416   -0.5039 H   0  0  0  0  0  0  0  0  0  0  0  0
    2.0153    0.0265   -0.0794 H   0  0  0  0  0  0  0  0  0  0  0  0
   -1.3803   -2.2455   -0.7575 H   0  0  0  0  0  0  0  0  0  0  0  0
    0.0463   -3.1607   -0.3329 H   0  0  0  0  0  0  0  0  0  0  0  0
   -0.5868   -1.9662    0.7740 H   0  0  0  0  0  0  0  0  0  0  0  0
    0.4106   -2.0693   -2.8005 H   0  0  0  0  0  0  0  0  0  0  0  0
    1.1062    0.2795   -3.6705 H   0  0  0  0  0  0  0  0  0  0  0  0
    1.8997    0.5589   -2.1390 H   0  0  0  0  0  0  0  0  0  0  0  0
    3.5230   -0.0786   -3.8606 H   0  0  0  0  0  0  0  0  0  0  0  0
    3.4428   -1.2877   -2.6017 H   0  0  0  0  0  0  0  0  0  0  0  0
    2.3958   -0.4755   -6.0361 H   0  0  0  0  0  0  0  0  0  0  0  0
    1.5221   -1.9639   -6.3087 H   0  0  0  0  0  0  0  0  0  0  0  0
    0.8890   -0.7694   -5.2018 H   0  0  0  0  0  0  0  0  0  0  0  0
    5.2331   -2.1256   -6.0555 H   0  0  0  0  0  0  0  0  0  0  0  0
    2.9075    0.8813   -7.2608 H   0  0  0  0  0  0  0  0  0  0  0  0
    1.6434   -1.1540   -6.5545 H   0  0  0  0  0  0  0  0  0  0  0  0
    2.3301   -1.0090   -4.9543 H   0  0  0  0  0  0  0  0  0  0  0  0
    2.4641    1.0845   -4.2559 H   0  0  0  0  0  0  0  0  0  0  0  0
    2.1887    3.7800   -3.2620 H   0  0  0  0  0  0  0  0  0  0  0  0
    1.2171    5.5500   -4.5617 H   0  0  0  0  0  0  0  0  0  0  0  0
   -0.3761    4.8798   -4.3053 H   0  0  0  0  0  0  0  0  0  0  0  0
   -0.0540    5.1388   -2.0169 H   0  0  0  0  0  0  0  0  0  0  0  0
    0.7271    2.8017   -1.7348 H   0  0  0  0  0  0  0  0  0  0  0  0
   -1.3563    3.0734   -3.6717 H   0  0  0  0  0  0  0  0  0  0  0  0
    0.9458    0.6639   -2.4885 H   0  0  0  0  0  0  0  0  0  0  0  0
   -1.1729    1.2853   -4.3029 H   0  0  0  0  0  0  0  0  0  0  0  0
    4.4567    1.7682   -5.7128 H   0  0  0  0  0  0  0  0  0  0  0  0
    1.7386    1.6480   -4.7867 H   0  0  0  0  0  0  0  0  0  0  0  0
    4.2945    1.1346   -3.3553 H   0  0  0  0  0  0  0  0  0  0  0  0
    2.4490   -0.8453   -4.3168 H   0  0  0  0  0  0  0  0  0  0  0  0
    5.9203   -0.0645   -4.7343 H   0  0  0  0  0  0  0  0  0  0  0  0
    4.4878   -1.8178   -2.9680 H   0  0  0  0  0  0  0  0  0  0  0  0
    1.4083   -3.6815   -4.5205 H   0  0  0  0  0  0  0  0  0  0  0  0
   -0.2151   -3.0440   -2.7989 H   0  0  0  0  0  0  0  0  0  0  0  0
    0.6586   -1.5555   -2.5263 H   0  0  0  0  0  0  0  0  0  0  0  0
   -1.2516   -1.1870   -4.0165 H   0  0  0  0  0  0  0  0  0  0  0  0
    0.2553   -0.8930   -4.8509 H   0  0  0  0  0  0  0  0  0  0  0  0
   -2.4185   -1.5722   -6.0798 H   0  0  0  0  0  0  0  0  0  0  0  0
   -0.9480   -1.2237   -6.9567 H   0  0  0  0  0  0  0  0  0  0  0  0
   -1.8155   -2.7096   -7.2612 H   0  0  0  0  0  0  0  0  0  0  0  0
    1.0294   -2.5570   -6.6442 H   0  0  0  0  0  0  0  0  0  0  0  0
    2.1230   -4.4228   -5.7525 H   0  0  0  0  0  0  0  0  0  0  0  0
    0.8474   -2.7236   -3.7769 H   0  0  0  0  0  0  0  0  0  0  0  0
    1.3117   -5.5619   -3.8778 H   0  0  0  0  0  0  0  0  0  0  0  0
    0.2649   -5.7956   -5.2569 H   0  0  0  0  0  0  0  0  0  0  0  0
   -1.0767   -5.3267   -3.2655 H   0  0  0  0  0  0  0  0  0  0  0  0
    0.3771   -5.0321   -1.2063 H   0  0  0  0  0  0  0  0  0  0  0  0
    1.7376   -4.6341   -2.2280 H   0  0  0  0  0  0  0  0  0  0  0  0
    1.2292   -3.5237   -0.9783 H   0  0  0  0  0  0  0  0  0  0  0  0
    1.0242   -1.7110   -2.8466 H   0  0  0  0  0  0  0  0  0  0  0  0
    1.3855   -2.8558   -4.1160 H   0  0  0  0  0  0  0  0  0  0  0  0
   -0.8036   -2.6068   -4.9383 H   0  0  0  0  0  0  0  0  0  0  0  0
    0.1053   -1.0746   -4.9289 H   0  0  0  0  0  0  0  0  0  0  0  0
   -1.0624   -0.4724   -2.9650 H   0  0  0  0  0  0  0  0  0  0  0  0
   -3.4933   -1.0833   -6.1054 H   0  0  0  0  0  0  0  0  0  0  0  0
   -0.2871   -3.5834   -6.2347 H   0  0  0  0  0  0  0  0  0  0  0  0
    0.1980   -1.3696   -5.1844 H   0  0  0  0  0  0  0  0  0  0  0  0
   -1.0265   -1.6880   -3.9793 H   0  0  0  0  0  0  0  0  0  0  0  0
    0.2015   -3.5440   -3.3048 H   0  0  0  0  0  0  0  0  0  0  0  0
   -2.1311   -4.7900   -5.3822 H   0  0  0  0  0  0  0  0  0  0  0  0
   -0.0734   -4.1914   -3.4671 H   0  0  0  0  0  0  0  0  0  0  0  0
   -3.0340   -4.2077   -3.1843 H   0  0  0  0  0  0  0  0  0  0  0  0
   -1.3557   -1.8900   -3.4332 H   0  0  0  0  0  0  0  0  0  0  0  0
   -4.1713   -3.2932   -5.1471 H   0  0  0  0  0  0  0  0  0  0  0  0
   -4.2368   -0.5531   -2.0733 H   0  0  0  0  0  0  0  0  0  0  0  0
   -1.2597   -3.4162   -2.9301 H   0  0  0  0  0  0  0  0  0  0  0  0
   -3.5589   -4.0593   -3.6645 H   0  0  0  0  0  0  0  0  0  0  0  0
   -3.6558   -2.5891   -4.6037 H   0  0  0  0  0  0  0  0  0  0  0  0
   -1.8329   -3.3289   -5.8436 H   0  0  0  0  0  0  0  0  0  0  0  0
   -0.5034   -1.2642   -3.5463 H   0  0  0  0  0  0  0  0  0  0  0  0
   -1.2074   -2.9845   -5.7383 H   0  0  0  0  0  0  0  0  0  0  0  0
   -1.6351   -0.0664   -5.3546 H   0  0  0  0  0  0  0  0  0  0  0  0
   -3.6143   -2.1310   -5.0894 H   0  0  0  0  0  0  0  0  0  0  0  0
   -2.2694    0.4975   -3.0606 H   0  0  0  0  0  0  0  0  0  0  0  0
   -4.5431    0.3140   -4.8049 H   0  0  0  0  0  0  0  0  0  0  0  0
   -3.3057   -4.0629   -3.1717 H   0  0  0  0  0  0  0  0  0  0  0  0
   -3.4855   -2.8380   -4.4047 H   0  0  0  0  0  0  0  0  0  0  0  0
   -2.0171   -3.7810   -4.3176 H   0  0  0  0  0  0  0  0  0  0  0  0
   -2.8696   -0.9074   -1.3350 H   0  0  0  0  0  0  0  0  0  0  0  0
   -3.9835   -1.1517   -2.6588 H   0  0  0  0  0  0  0  0  0  0  0  0
   -3.8068   -2.3792   -1.4279 H   0  0  0  0  0  0  0  0  0  0  0  0
   -0.8072   -2.2524   -1.1693 H   0  0  0  0  0  0  0  0  0  0  0  0
   -2.6985   -3.6631   -0.5235 H   0  0  0  0  0  0  0  0  0  0  0  0
   -2.2837   -4.7987   -1.7850 H   0  0  0  0  0  0  0  0  0  0  0  0
   -3.1841   -3.9390   -3.3926 H   0  0  0  0  0  0  0  0  0  0  0  0
   -2.2494   -2.4763   -3.1925 H   0  0  0  0  0  0  0  0  0  0  0  0
   -1.2754   -5.2107   -6.2668 H   0  0  0  0  0  0  0  0  0  0  0  0
   -2.6109   -5.5427   -5.1902 H   0  0  0  0  0  0  0  0  0  0  0  0
   -2.7373   -4.2591   -6.3690 H   0  0  0  0  0  0  0  0  0  0  0  0
  1  2  1  0  0  0  0
  1 76  1  0  0  0  0
  1 77  1  0  0  0  0
  1 78  1  0  0  0  0
  2  3  1  0  0  0  0
  2  4  2  0  0  0  0
  3 79  1  0  0  0  0
  3 80  1  0  0  0  0
  3 81  1  0  0  0  0
  4  5  1  0  0  0  0
  4 82  1  0  0  0  0
  5  6  1  0  0  0  0
  5 83  1  0  0  0  0
  5 84  1  0  0  0  0
  6  7  1  0  0  0  0
  6 85  1  0  0  0  0
  6 86  1  0  0  0  0
  7  8  1  0  0  0  0
  7  9  1  0  0  0  0
  7 30  1  0  0  0  0
  8 87  1  0  0  0  0
  8 88  1  0  0  0  0
  8 89  1  0  0  0  0
  9 10  1  0  0  0  0
 10 11  1  0  0  0  0
 10 28  1  0  0  0  0
 10 90  1  0  0  0  0
 11 12  1  0  0  0  0
 12 13  1  0  0  0  0
 12 24  1  0  0  0  0
 12 91  1  0  0  0  0
 13 14  1  0  0  0  0
 13 92  1  0  0  0  0
 13 93  1  0  0  0  0
 14 15  1  0  0  0  0
 15 16  1  0  0  0  0
 15 22  1  0  0  0  0
 15 94  1  0  0  0  0
 16 17  1  0  0  0  0
 17 18  1  0  0  0  0
 17 20  1  0  0  0  0
 17 95  1  0  0  0  0
 18 19  1  0  0  0  0
 18 96  1  0  0  0  0
 18 97  1  0  0  0  0
 19 98  1  0  0  0  0
 20 21  1  0  0  0  0
 20 22  1  0  0  0  0
 20 99  1  0  0  0  0
 21100  1  0  0  0  0
 22 23  1  0  0  0  0
 22101  1  0  0  0  0
 23102  1  0  0  0  0
 24 25  1  0  0  0  0
 24 26  1  0  0  0  0
 24103  1  0  0  0  0
 25104  1  0  0  0  0
 26 27  1  0  0  0  0
 26 28  1  0  0  0  0
 26105  1  0  0  0  0
 27106  1  0  0  0  0
 28 29  1  0  0  0  0
 28107  1  0  0  0  0
 29108  1  0  0  0  0
 30 31  1  0  0  0  0
 30 35  1  0  0  0  0
 30109  1  0  0  0  0
 31 32  1  0  0  0  0
 31110  1  0  0  0  0
 31111  1  0  0  0  0
 32 33  1  0  0  0  0
 32112  1  0  0  0  0
 32113  1  0  0  0  0
 33 34  1  0  0  0  0
 33 35  1  0  0  0  0
 33 74  1  0  0  0  0
 34114  1  0  0  0  0
 34115  1  0  0  0  0
 34116  1  0  0  0  0
 35 36  1  0  0  0  0
 35117  1  0  0  0  0
 36 37  1  0  0  0  0
 36 38  1  0  0  0  0
 36118  1  0  0  0  0
 37119  1  0  0  0  0
 38 39  1  0  0  0  0
 38120  1  0  0  0  0
 38121  1  0  0  0  0
 39 40  1  0  0  0  0
 39 74  1  0  0  0  0
 39122  1  0  0  0  0
 40 41  1  0  0  0  0
 40 42  1  0  0  0  0
 40 71  1  0  0  0  0
 41123  1  0  0  0  0
 41124  1  0  0  0  0
 41125  1  0  0  0  0
 42 43  1  0  0  0  0
 42126  1  0  0  0  0
 42127  1  0  0  0  0
 43 44  1  0  0  0  0
 43128  1  0  0  0  0
 43129  1  0  0  0  0
 44 45  1  0  0  0  0
 44 68  1  0  0  0  0
 44130  1  0  0  0  0
 45 46  1  0  0  0  0
 46 47  1  0  0  0  0
 46 55  1  0  0  0  0
 46131  1  0  0  0  0
 47 48  1  0  0  0  0
 48 49  1  0  0  0  0
 48 51  1  0  0  0  0
 48132  1  0  0  0  0
 49 50  1  0  0  0  0
 49133  1  0  0  0  0
 49134  1  0  0  0  0
 50135  1  0  0  0  0
 51 52  1  0  0  0  0
 51 53  1  0  0  0  0
 51136  1  0  0  0  0
 52137  1  0  0  0  0
 53 54  1  0  0  0  0
 53 55  1  0  0  0  0
 53138  1  0  0  0  0
 54139  1  0  0  0  0
 55 56  1  0  0  0  0
 55140  1  0  0  0  0
 56 57  1  0  0  0  0
 57 58  1  0  0  0  0
 57 66  1  0  0  0  0
 57141  1  0  0  0  0
 58 59  1  0  0  0  0
 59 60  1  0  0  0  0
 59 62  1  0  0  0  0
 59142  1  0  0  0  0
 60 61  1  0  0  0  0
 60143  1  0  0  0  0
 60144  1  0  0  0  0
 61145  1  0  0  0  0
 62 63  1  0  0  0  0
 62 64  1  0  0  0  0
 62146  1  0  0  0  0
 63147  1  0  0  0  0
 64 65  1  0  0  0  0
 64 66  1  0  0  0  0
 64148  1  0  0  0  0
 65149  1  0  0  0  0
 66 67  1  0  0  0  0
 66150  1  0  0  0  0
 67151  1  0  0  0  0
 68 69  1  0  0  0  0
 68 70  1  0  0  0  0
 68 71  1  0  0  0  0
 69152  1  0  0  0  0
 69153  1  0  0  0  0
 69154  1  0  0  0  0
 70155  1  0  0  0  0
 70156  1  0  0  0  0
 70157  1  0  0  0  0
 71 72  1  0  0  0  0
 71158  1  0  0  0  0
 72 73  1  0  0  0  0
 72159  1  0  0  0  0
 72160  1  0  0  0  0
 73 74  1  0  0  0  0
 73161  1  0  0  0  0
 73162  1  0  0  0  0
 74 75  1  0  0  0  0
 75163  1  0  0  0  0
 75164  1  0  0  0  0
 75165  1  0  0  0  0
M  END
