
 OpenBabel03132514253D

127132  0  0  0  0  0  0  0  0999 V2000
    1.0521    0.0572   -0.0633 C   0  0  0  0  0  0  0  0  0  0  0  0
    0.5455    1.3299   -0.7220 C   0  0  0  0  0  0  0  0  0  0  0  0
   -0.3284    1.2474   -1.9630 C   0  0  0  0  0  0  0  0  0  0  0  0
    0.8741    2.5428   -0.2009 C   0  0  0  0  0  0  0  0  0  0  0  0
    1.7480    2.6252    1.0401 C   0  0  0  0  0  0  0  0  0  0  0  0
    3.0147    3.4009    0.7171 C   0  0  0  0  0  0  0  0  0  0  0  0
    2.6474    4.8039    0.2619 C   0  0  0  0  0  0  0  0  0  0  0  0
    1.8875    5.5136    1.3705 C   0  0  0  0  0  0  0  0  0  0  0  0
    3.8308    5.5285   -0.0398 O   0  0  0  0  0  0  0  0  0  0  0  0
    1.7736    4.7214   -0.9790 C   0  0  0  0  0  0  0  0  0  0  0  0
    1.9750    5.9783   -1.8288 C   0  0  0  0  0  0  0  0  0  0  0  0
    2.4017    7.1399   -0.9282 C   0  0  0  0  0  0  0  0  0  0  0  0
    3.8118    7.5916   -1.3118 C   0  0  0  0  0  0  0  0  0  0  0  0
    4.5910    8.4981   -2.2507 C   0  0  0  0  0  0  0  0  0  0  0  0
    2.1619    3.4869   -1.7944 C   0  0  0  0  0  0  0  0  0  0  0  0
    2.5581    2.3528   -0.8461 C   0  0  0  0  0  0  0  0  0  0  0  0
    2.9908    2.8999    0.3907 O   0  0  0  0  0  0  0  0  0  0  0  0
    3.6943    1.5398   -1.4689 C   0  0  0  0  0  0  0  0  0  0  0  0
    4.7126    1.1745   -0.3874 C   0  0  0  0  0  0  0  0  0  0  0  0
    6.1168    1.5625   -0.8557 C   0  0  0  0  0  0  0  0  0  0  0  0
    6.1462    0.5721   -2.0083 C   0  0  0  0  0  0  0  0  0  0  0  0
    6.9260    2.0796    0.3355 C   0  0  0  0  0  0  0  0  0  0  0  0
    7.9137    3.1148   -0.1396 C   0  0  0  0  0  0  0  0  0  0  0  0
    7.5238    4.3891   -0.3019 C   0  0  0  0  0  0  0  0  0  0  0  0
    6.5647    4.3502   -1.3483 O   0  0  0  0  0  0  0  0  0  0  0  0
    7.1803    3.8772   -2.5373 C   0  0  0  0  0  0  0  0  0  0  0  0
    8.3158    4.8286   -2.9218 O   0  0  0  0  0  0  0  0  0  0  0  0
    9.3224    4.8026   -1.9075 C   0  0  0  0  0  0  0  0  0  0  0  0
    8.6374    5.1666   -0.6004 C   0  0  0  0  0  0  0  0  0  0  0  0
    9.5959    5.1851    0.4472 O   0  0  0  0  0  0  0  0  0  0  0  0
    9.9231    3.5206   -1.7151 C   0  0  0  0  0  0  0  0  0  0  0  0
   10.9219    3.6116   -0.7098 O   0  0  0  0  0  0  0  0  0  0  0  0
    8.8526    2.5162   -1.2818 C   0  0  0  0  0  0  0  0  0  0  0  0
    8.2994    2.9151   -0.0363 O   0  0  0  0  0  0  0  0  0  0  0  0
    7.7497    2.4679   -2.3438 C   0  0  0  0  0  0  0  0  0  0  0  0
    6.7179    1.5875   -1.9236 O   0  0  0  0  0  0  0  0  0  0  0  0
    6.1723    2.0492   -0.6966 C   0  0  0  0  0  0  0  0  0  0  0  0
    7.2648    2.1156    0.3732 O   0  0  0  0  0  0  0  0  0  0  0  0
    8.2807    3.0319   -0.0404 C   0  0  0  0  0  0  0  0  0  0  0  0
    8.7798    2.5517   -1.3935 C   0  0  0  0  0  0  0  0  0  0  0  0
    9.8159    3.4100   -1.8476 O   0  0  0  0  0  0  0  0  0  0  0  0
    7.8183    4.3713   -0.2233 C   0  0  0  0  0  0  0  0  0  0  0  0
    8.9062    5.1999   -0.6060 O   0  0  0  0  0  0  0  0  0  0  0  0
    6.7482    4.3961   -1.3172 C   0  0  0  0  0  0  0  0  0  0  0  0
    7.3140    3.9724   -2.5487 O   0  0  0  0  0  0  0  0  0  0  0  0
    5.6057    3.4545   -0.9238 C   0  0  0  0  0  0  0  0  0  0  0  0
    4.6358    3.4185   -1.9604 O   0  0  0  0  0  0  0  0  0  0  0  0
    8.5298    5.3351   -0.7484 C   0  0  0  0  0  0  0  0  0  0  0  0
    9.8691    4.9871   -0.1197 C   0  0  0  0  0  0  0  0  0  0  0  0
    8.6504    5.2705   -2.2622 C   0  0  0  0  0  0  0  0  0  0  0  0
    8.1195    6.7485   -0.3286 C   0  0  0  0  0  0  0  0  0  0  0  0
    6.6925    6.7765   -0.0626 C   0  0  0  0  0  0  0  0  0  0  0  0
    6.0498    7.9310   -0.3013 C   0  0  0  0  0  0  0  0  0  0  0  0
    4.5661    8.0314   -0.0562 C   0  0  0  0  0  0  0  0  0  0  0  0
    4.1277    9.1886    0.8265 C   0  0  0  0  0  0  0  0  0  0  0  0
    0.6955   -0.7923   -0.6074 H   0  0  0  0  0  0  0  0  0  0  0  0
    0.6955    0.0108    0.9444 H   0  0  0  0  0  0  0  0  0  0  0  0
    2.1221    0.0572   -0.0633 H   0  0  0  0  0  0  0  0  0  0  0  0
   -1.2735    1.7084   -1.7649 H   0  0  0  0  0  0  0  0  0  0  0  0
    0.1532    1.7548   -2.7727 H   0  0  0  0  0  0  0  0  0  0  0  0
   -0.4800    0.2211   -2.2249 H   0  0  0  0  0  0  0  0  0  0  0  0
    0.5174    3.4387   -0.6646 H   0  0  0  0  0  0  0  0  0  0  0  0
    1.2130    3.1249    1.8205 H   0  0  0  0  0  0  0  0  0  0  0  0
    2.0065    1.6376    1.3605 H   0  0  0  0  0  0  0  0  0  0  0  0
    3.6298    3.4590    1.5907 H   0  0  0  0  0  0  0  0  0  0  0  0
    3.5496    2.9013   -0.0633 H   0  0  0  0  0  0  0  0  0  0  0  0
    2.5026    5.5717    2.2441 H   0  0  0  0  0  0  0  0  0  0  0  0
    1.6290    6.5013    1.0501 H   0  0  0  0  0  0  0  0  0  0  0  0
    0.9958    4.9676    1.5979 H   0  0  0  0  0  0  0  0  0  0  0  0
    4.4057    5.5828    0.7766 H   0  0  0  0  0  0  0  0  0  0  0  0
    0.7464    4.6483   -0.6883 H   0  0  0  0  0  0  0  0  0  0  0  0
    2.7345    5.7965   -2.5603 H   0  0  0  0  0  0  0  0  0  0  0  0
    1.0581    6.2269   -2.3211 H   0  0  0  0  0  0  0  0  0  0  0  0
    2.3951    6.8203    0.0929 H   0  0  0  0  0  0  0  0  0  0  0  0
    1.7201    7.9555   -1.0512 H   0  0  0  0  0  0  0  0  0  0  0  0
    4.3898    8.2195   -3.2640 H   0  0  0  0  0  0  0  0  0  0  0  0
    4.2934    9.5139   -2.0943 H   0  0  0  0  0  0  0  0  0  0  0  0
    5.6382    8.3990   -2.0547 H   0  0  0  0  0  0  0  0  0  0  0  0
    1.9176    2.8443   -2.6142 H   0  0  0  0  0  0  0  0  0  0  0  0
    1.7142    1.7164   -0.6793 H   0  0  0  0  0  0  0  0  0  0  0  0
    3.7795    3.4946    0.2344 H   0  0  0  0  0  0  0  0  0  0  0  0
    3.2972    0.6453   -1.9013 H   0  0  0  0  0  0  0  0  0  0  0  0
    4.1739    2.1210   -2.2285 H   0  0  0  0  0  0  0  0  0  0  0  0
    4.5749    0.2837    0.1891 H   0  0  0  0  0  0  0  0  0  0  0  0
    5.6494    0.9961   -2.8558 H   0  0  0  0  0  0  0  0  0  0  0  0
    7.1618    0.3519   -2.2636 H   0  0  0  0  0  0  0  0  0  0  0  0
    5.6483   -0.3291   -1.7170 H   0  0  0  0  0  0  0  0  0  0  0  0
    6.2645    2.5199    1.0519 H   0  0  0  0  0  0  0  0  0  0  0  0
    7.4525    1.2660    0.7891 H   0  0  0  0  0  0  0  0  0  0  0  0
    8.6159    3.1729    0.6656 H   0  0  0  0  0  0  0  0  0  0  0  0
    8.2796    2.7805   -1.0879 H   0  0  0  0  0  0  0  0  0  0  0  0
    7.1512    4.7348    0.6396 H   0  0  0  0  0  0  0  0  0  0  0  0
    6.4420    3.8391   -3.3108 H   0  0  0  0  0  0  0  0  0  0  0  0
   10.0906    5.4964   -2.1785 H   0  0  0  0  0  0  0  0  0  0  0  0
    8.1885    6.1337   -0.6902 H   0  0  0  0  0  0  0  0  0  0  0  0
    7.8818    4.4418   -0.3798 H   0  0  0  0  0  0  0  0  0  0  0  0
   10.0154    4.2812    0.5311 H   0  0  0  0  0  0  0  0  0  0  0  0
   10.3686    3.1942   -2.6315 H   0  0  0  0  0  0  0  0  0  0  0  0
   10.5058    3.9167    0.1468 H   0  0  0  0  0  0  0  0  0  0  0  0
    9.2926    1.5464   -1.1781 H   0  0  0  0  0  0  0  0  0  0  0  0
    7.8872    3.8214   -0.1297 H   0  0  0  0  0  0  0  0  0  0  0  0
    8.1573    2.1158   -3.2684 H   0  0  0  0  0  0  0  0  0  0  0  0
    5.4054    1.3800   -0.3665 H   0  0  0  0  0  0  0  0  0  0  0  0
    9.0491    3.0403    0.7041 H   0  0  0  0  0  0  0  0  0  0  0  0
    9.1573    1.5548   -1.3011 H   0  0  0  0  0  0  0  0  0  0  0  0
    7.9729    2.5639   -2.0961 H   0  0  0  0  0  0  0  0  0  0  0  0
    9.4630    4.3417   -1.9339 H   0  0  0  0  0  0  0  0  0  0  0  0
    7.4003    4.7327    0.6930 H   0  0  0  0  0  0  0  0  0  0  0  0
    9.2971    4.8624   -1.4623 H   0  0  0  0  0  0  0  0  0  0  0  0
    6.3706    5.3913   -1.4262 H   0  0  0  0  0  0  0  0  0  0  0  0
    7.6680    3.0424   -2.4504 H   0  0  0  0  0  0  0  0  0  0  0  0
    5.1454    3.8055   -0.0239 H   0  0  0  0  0  0  0  0  0  0  0  0
    5.0615    3.0909   -2.8039 H   0  0  0  0  0  0  0  0  0  0  0  0
   10.1549    3.9986   -0.4134 H   0  0  0  0  0  0  0  0  0  0  0  0
   10.6100    5.6853   -0.4491 H   0  0  0  0  0  0  0  0  0  0  0  0
    9.7853    5.0322    0.9461 H   0  0  0  0  0  0  0  0  0  0  0  0
    7.7078    5.5147   -2.7059 H   0  0  0  0  0  0  0  0  0  0  0  0
    9.3911    5.9692   -2.5912 H   0  0  0  0  0  0  0  0  0  0  0  0
    8.9372    4.2822   -2.5553 H   0  0  0  0  0  0  0  0  0  0  0  0
    8.6582    7.6683   -0.2356 H   0  0  0  0  0  0  0  0  0  0  0  0
    6.2681    6.0753   -0.7504 H   0  0  0  0  0  0  0  0  0  0  0  0
    6.5522    6.5368    0.9708 H   0  0  0  0  0  0  0  0  0  0  0  0
    6.4650    8.5987    0.4245 H   0  0  0  0  0  0  0  0  0  0  0  0
    6.2091    8.1658   -1.3330 H   0  0  0  0  0  0  0  0  0  0  0  0
    4.1099   10.0899    0.2502 H   0  0  0  0  0  0  0  0  0  0  0  0
    3.1490    8.9922    1.2119 H   0  0  0  0  0  0  0  0  0  0  0  0
    4.8155    9.2981    1.6388 H   0  0  0  0  0  0  0  0  0  0  0  0
  1  2  1  0  0  0  0
  1 56  1  0  0  0  0
  1 57  1  0  0  0  0
  1 58  1  0  0  0  0
  2  3  1  0  0  0  0
  2  4  2  0  0  0  0
  3 59  1  0  0  0  0
  3 60  1  0  0  0  0
  3 61  1  0  0  0  0
  4  5  1  0  0  0  0
  4 62  1  0  0  0  0
  5  6  1  0  0  0  0
  5 63  1  0  0  0  0
  5 64  1  0  0  0  0
  6  7  1  0  0  0  0
  6 65  1  0  0  0  0
  6 66  1  0  0  0  0
  7  8  1  0  0  0  0
  7  9  1  0  0  0  0
  7 10  1  0  0  0  0
  8 67  1  0  0  0  0
  8 68  1  0  0  0  0
  8 69  1  0  0  0  0
  9 70  1  0  0  0  0
 10 11  1  0  0  0  0
 10 15  1  0  0  0  0
 10 71  1  0  0  0  0
 11 12  1  0  0  0  0
 11 72  1  0  0  0  0
 11 73  1  0  0  0  0
 12 13  1  0  0  0  0
 12 74  1  0  0  0  0
 12 75  1  0  0  0  0
 13 14  1  0  0  0  0
 13 15  1  0  0  0  0
 13 54  1  0  0  0  0
 14 76  1  0  0  0  0
 14 77  1  0  0  0  0
 14 78  1  0  0  0  0
 15 16  1  0  0  0  0
 15 79  1  0  0  0  0
 16 17  1  0  0  0  0
 16 18  1  0  0  0  0
 16 80  1  0  0  0  0
 17 81  1  0  0  0  0
 18 19  1  0  0  0  0
 18 82  1  0  0  0  0
 18 83  1  0  0  0  0
 19 20  1  0  0  0  0
 19 54  1  0  0  0  0
 19 84  1  0  0  0  0
 20 21  1  0  0  0  0
 20 22  1  0  0  0  0
 20 51  1  0  0  0  0
 21 85  1  0  0  0  0
 21 86  1  0  0  0  0
 21 87  1  0  0  0  0
 22 23  1  0  0  0  0
 22 88  1  0  0  0  0
 22 89  1  0  0  0  0
 23 24  1  0  0  0  0
 23 90  1  0  0  0  0
 23 91  1  0  0  0  0
 24 25  1  0  0  0  0
 24 48  1  0  0  0  0
 24 92  1  0  0  0  0
 25 26  1  0  0  0  0
 26 27  1  0  0  0  0
 26 35  1  0  0  0  0
 26 93  1  0  0  0  0
 27 28  1  0  0  0  0
 28 29  1  0  0  0  0
 28 31  1  0  0  0  0
 28 94  1  0  0  0  0
 29 30  1  0  0  0  0
 29 95  1  0  0  0  0
 29 96  1  0  0  0  0
 30 97  1  0  0  0  0
 31 32  1  0  0  0  0
 31 33  1  0  0  0  0
 31 98  1  0  0  0  0
 32 99  1  0  0  0  0
 33 34  1  0  0  0  0
 33 35  1  0  0  0  0
 33100  1  0  0  0  0
 34101  1  0  0  0  0
 35 36  1  0  0  0  0
 35102  1  0  0  0  0
 36 37  1  0  0  0  0
 37 38  1  0  0  0  0
 37 46  1  0  0  0  0
 37103  1  0  0  0  0
 38 39  1  0  0  0  0
 39 40  1  0  0  0  0
 39 42  1  0  0  0  0
 39104  1  0  0  0  0
 40 41  1  0  0  0  0
 40105  1  0  0  0  0
 40106  1  0  0  0  0
 41107  1  0  0  0  0
 42 43  1  0  0  0  0
 42 44  1  0  0  0  0
 42108  1  0  0  0  0
 43109  1  0  0  0  0
 44 45  1  0  0  0  0
 44 46  1  0  0  0  0
 44110  1  0  0  0  0
 45111  1  0  0  0  0
 46 47  1  0  0  0  0
 46112  1  0  0  0  0
 47113  1  0  0  0  0
 48 49  1  0  0  0  0
 48 50  1  0  0  0  0
 48 51  1  0  0  0  0
 49114  1  0  0  0  0
 49115  1  0  0  0  0
 49116  1  0  0  0  0
 50117  1  0  0  0  0
 50118  1  0  0  0  0
 50119  1  0  0  0  0
 51 52  1  0  0  0  0
 51120  1  0  0  0  0
 52 53  1  0  0  0  0
 52121  1  0  0  0  0
 52122  1  0  0  0  0
 53 54  1  0  0  0  0
 53123  1  0  0  0  0
 53124  1  0  0  0  0
 54 55  1  0  0  0  0
 55125  1  0  0  0  0
 55126  1  0  0  0  0
 55127  1  0  0  0  0
M  END
