REMARK  Name = 
REMARK  27 active torsions:
REMARK  status: ('A' for Active; 'I' for Inactive)
REMARK    1  A    between atoms: C_1  and  C_2
REMARK    2  A    between atoms: C_2  and  C_3
REMARK    3  A    between atoms: C_4  and  C_5
REMARK    4  A    between atoms: C_5  and  C_6
REMARK    5  A    between atoms: C_6  and  C_7
REMARK    6  A    between atoms: C_7  and  C_8
REMARK    7  A    between atoms: C_7  and  O_9
REMARK    8  A    between atoms: C_7  and  C_10
REMARK    9  A    between atoms: C_13  and  C_14
REMARK   10  A    between atoms: C_16  and  O_17
REMARK   11  A    between atoms: C_20  and  C_21
REMARK   12  A    between atoms: C_24  and  O_25
REMARK   13  A    between atoms: O_25  and  C_26
REMARK   14  A    between atoms: C_28  and  C_29
REMARK   15  A    between atoms: C_29  and  O_30
REMARK   16  A    between atoms: C_31  and  O_32
REMARK   17  A    between atoms: C_33  and  O_34
REMARK   18  A    between atoms: C_35  and  O_36
REMARK   19  A    between atoms: O_36  and  C_37
REMARK   20  A    between atoms: C_39  and  C_40
REMARK   21  A    between atoms: C_40  and  O_41
REMARK   22  A    between atoms: C_42  and  O_43
REMARK   23  A    between atoms: C_44  and  O_45
REMARK   24  A    between atoms: C_46  and  O_47
REMARK   25  A    between atoms: C_48  and  C_49
REMARK   26  A    between atoms: C_48  and  C_50
REMARK   27  A    between atoms: C_54  and  C_55
REMARK                            x       y       z     vdW  Elec       q    Type
REMARK                         _______ _______ _______ _____ _____    ______ ____
ROOT
ATOM      1  C   UNL     1       1.774   4.721  -0.979  0.00  0.00    +0.000 C 
ATOM      2  C   UNL     1       1.975   5.978  -1.829  0.00  0.00    +0.000 C 
ATOM      3  C   UNL     1       2.402   7.140  -0.928  0.00  0.00    +0.000 C 
ATOM      4  C   UNL     1       3.812   7.592  -1.312  0.00  0.00    +0.000 C 
ATOM      5  C   UNL     1       4.591   8.498  -2.251  0.00  0.00    +0.000 C 
ATOM      6  C   UNL     1       2.162   3.487  -1.794  0.00  0.00    +0.000 C 
ATOM      7  C   UNL     1       2.558   2.353  -0.846  0.00  0.00    +0.000 C 
ATOM      8  C   UNL     1       3.694   1.540  -1.469  0.00  0.00    +0.000 C 
ATOM      9  C   UNL     1       4.713   1.175  -0.387  0.00  0.00    +0.000 C 
ATOM     10  C   UNL     1       6.117   1.562  -0.856  0.00  0.00    +0.000 C 
ATOM     11  C   UNL     1       6.146   0.572  -2.008  0.00  0.00    +0.000 C 
ATOM     12  C   UNL     1       6.926   2.080   0.336  0.00  0.00    +0.000 C 
ATOM     13  C   UNL     1       7.914   3.115  -0.140  0.00  0.00    +0.000 C 
ATOM     14  C   UNL     1       7.524   4.389  -0.302  0.00  0.00    +0.000 C 
ATOM     15  C   UNL     1       8.530   5.335  -0.748  0.00  0.00    +0.000 C 
ATOM     16  C   UNL     1       9.869   4.987  -0.120  0.00  0.00    +0.000 C 
ATOM     17  C   UNL     1       8.650   5.271  -2.262  0.00  0.00    +0.000 C 
ATOM     18  C   UNL     1       8.120   6.748  -0.329  0.00  0.00    +0.000 C 
ATOM     19  C   UNL     1       6.692   6.777  -0.063  0.00  0.00    +0.000 C 
ATOM     20  C   UNL     1       6.050   7.931  -0.301  0.00  0.00    +0.000 C 
ATOM     21  C   UNL     1       4.566   8.031  -0.056  0.00  0.00    +0.000 C 
ATOM     22  C   UNL     1       4.128   9.189   0.827  0.00  0.00    +0.000 C 
ENDROOT
BRANCH   7  23
ATOM     23  O   UNL     1       2.991   2.900   0.391  0.00  0.00    +0.000 OA
ATOM     24  H   UNL     1       3.780   3.495   0.234  0.00  0.00    +0.000 HD
ENDBRANCH   7  23
BRANCH   1  25
ATOM     25  C   UNL     1       2.647   4.804   0.262  0.00  0.00    +0.000 C 
ATOM     26  C   UNL     1       1.887   5.514   1.371  0.00  0.00    +0.000 C 
BRANCH  25  27
ATOM     27  O   UNL     1       3.831   5.529  -0.040  0.00  0.00    +0.000 OA
ATOM     28  H   UNL     1       4.406   5.583   0.777  0.00  0.00    +0.000 HD
ENDBRANCH  25  27
BRANCH  25  29
ATOM     29  C   UNL     1       3.015   3.401   0.717  0.00  0.00    +0.000 C 
BRANCH  29  30
ATOM     30  C   UNL     1       1.748   2.625   1.040  0.00  0.00    +0.000 C 
BRANCH  30  34
ATOM     31  C   UNL     1       1.052   0.057  -0.063  0.00  0.00    +0.000 C 
ATOM     32  C   UNL     1       0.545   1.330  -0.722  0.00  0.00    +0.000 C 
ATOM     33  C   UNL     1      -0.328   1.247  -1.963  0.00  0.00    +0.000 C 
ATOM     34  C   UNL     1       0.874   2.543  -0.201  0.00  0.00    +0.000 C 
ENDBRANCH  30  34
ENDBRANCH  29  30
ENDBRANCH  25  29
ENDBRANCH   1  25
BRANCH  14  35
ATOM     35  O   UNL     1       6.565   4.350  -1.348  0.00  0.00    +0.000 OA
BRANCH  35  36
ATOM     36  C   UNL     1       7.180   3.877  -2.537  0.00  0.00    +0.000 C 
ATOM     37  O   UNL     1       8.316   4.829  -2.922  0.00  0.00    +0.000 OA
ATOM     38  C   UNL     1       9.322   4.803  -1.907  0.00  0.00    +0.000 C 
ATOM     39  C   UNL     1       9.923   3.521  -1.715  0.00  0.00    +0.000 C 
ATOM     40  C   UNL     1       8.853   2.516  -1.282  0.00  0.00    +0.000 C 
ATOM     41  C   UNL     1       7.750   2.468  -2.344  0.00  0.00    +0.000 C 
BRANCH  40  42
ATOM     42  O   UNL     1       8.299   2.915  -0.036  0.00  0.00    +0.000 OA
ATOM     43  H   UNL     1       7.887   3.821  -0.130  0.00  0.00    +0.000 HD
ENDBRANCH  40  42
BRANCH  39  44
ATOM     44  O   UNL     1      10.922   3.612  -0.710  0.00  0.00    +0.000 OA
ATOM     45  H   UNL     1      10.506   3.917   0.147  0.00  0.00    +0.000 HD
ENDBRANCH  39  44
BRANCH  38  46
ATOM     46  C   UNL     1       8.637   5.167  -0.600  0.00  0.00    +0.000 C 
BRANCH  46  47
ATOM     47  O   UNL     1       9.596   5.185   0.447  0.00  0.00    +0.000 OA
ATOM     48  H   UNL     1      10.015   4.281   0.531  0.00  0.00    +0.000 HD
ENDBRANCH  46  47
ENDBRANCH  38  46
BRANCH  41  49
ATOM     49  O   UNL     1       6.718   1.587  -1.924  0.00  0.00    +0.000 OA
BRANCH  49  50
ATOM     50  C   UNL     1       6.172   2.049  -0.697  0.00  0.00    +0.000 C 
ATOM     51  O   UNL     1       7.265   2.116   0.373  0.00  0.00    +0.000 OA
ATOM     52  C   UNL     1       8.281   3.032  -0.040  0.00  0.00    +0.000 C 
ATOM     53  C   UNL     1       7.818   4.371  -0.223  0.00  0.00    +0.000 C 
ATOM     54  C   UNL     1       6.748   4.396  -1.317  0.00  0.00    +0.000 C 
ATOM     55  C   UNL     1       5.606   3.454  -0.924  0.00  0.00    +0.000 C 
BRANCH  55  56
ATOM     56  O   UNL     1       4.636   3.418  -1.960  0.00  0.00    +0.000 OA
ATOM     57  H   UNL     1       5.061   3.091  -2.804  0.00  0.00    +0.000 HD
ENDBRANCH  55  56
BRANCH  54  58
ATOM     58  O   UNL     1       7.314   3.972  -2.549  0.00  0.00    +0.000 OA
ATOM     59  H   UNL     1       7.668   3.042  -2.450  0.00  0.00    +0.000 HD
ENDBRANCH  54  58
BRANCH  53  60
ATOM     60  O   UNL     1       8.906   5.200  -0.606  0.00  0.00    +0.000 OA
ATOM     61  H   UNL     1       9.297   4.862  -1.462  0.00  0.00    +0.000 HD
ENDBRANCH  53  60
BRANCH  52  62
ATOM     62  C   UNL     1       8.780   2.552  -1.393  0.00  0.00    +0.000 C 
BRANCH  62  63
ATOM     63  O   UNL     1       9.816   3.410  -1.848  0.00  0.00    +0.000 OA
ATOM     64  H   UNL     1       9.463   4.342  -1.934  0.00  0.00    +0.000 HD
ENDBRANCH  62  63
ENDBRANCH  52  62
ENDBRANCH  49  50
ENDBRANCH  41  49
ENDBRANCH  35  36
ENDBRANCH  14  35
TORSDOF 19
