REMARK  Name = 
REMARK  5 active torsions:
REMARK  status: ('A' for Active; 'I' for Inactive)
REMARK    1  A    between atoms: C_2  and  C_4
REMARK    2  A    between atoms: C_6  and  N_7
REMARK    3  A    between atoms: C_17  and  O_18
REMARK    4  A    between atoms: O_18  and  C_19
REMARK    5  A    between atoms: C_19  and  C_20
REMARK                            x       y       z     vdW  Elec       q    Type
REMARK                         _______ _______ _______ _____ _____    ______ ____
ROOT
ATOM      1  C   UNL     1       1.066  -1.770   2.006  0.00  0.00    +0.000 A 
ATOM      2  S   UNL     1       0.494  -3.335   2.443  0.00  0.00    +0.000 S 
ATOM      3  C   UNL     1       1.730  -3.487   3.630  0.00  0.00    +0.000 A 
ATOM      4  C   UNL     1       2.524  -2.384   3.690  0.00  0.00    +0.000 A 
ATOM      5  C   UNL     1       2.153  -1.402   2.765  0.00  0.00    +0.000 A 
ENDROOT
BRANCH   3   6
ATOM      6  N   UNL     1       1.908  -4.672   4.482  0.00  0.00    +0.000 N 
ATOM      7  C   UNL     1       2.277  -5.875   4.091  0.00  0.00    +0.000 A 
ATOM      8  N   UNL     1       2.466  -6.665   5.137  0.00  0.00    +0.000 NA
ATOM      9  C   UNL     1       2.218  -5.971   6.246  0.00  0.00    +0.000 A 
ATOM     10  C   UNL     1       2.245  -6.254   7.628  0.00  0.00    +0.000 A 
ATOM     11  C   UNL     1       1.925  -5.283   8.510  0.00  0.00    +0.000 A 
ATOM     12  C   UNL     1       1.571  -4.037   8.099  0.00  0.00    +0.000 A 
ATOM     13  C   UNL     1       1.532  -3.706   6.789  0.00  0.00    +0.000 A 
ATOM     14  C   UNL     1       1.851  -4.662   5.823  0.00  0.00    +0.000 A 
ENDBRANCH   3   6
BRANCH   1  16
ATOM     15  N   UNL     1       1.041  -0.079   0.045  0.00  0.00    +0.000 N 
ATOM     16  C   UNL     1       0.306  -0.910   1.009  0.00  0.00    +0.000 C 
ATOM     17  O   UNL     1      -0.965  -0.910   1.009  0.00  0.00    +0.000 OA
ATOM     18  H   UNL     1       0.531   0.497  -0.624  0.00  0.00    +0.000 HD
ATOM     19  H   UNL     1       2.061  -0.079   0.045  0.00  0.00    +0.000 HD
ENDBRANCH   1  16
BRANCH   5  20
ATOM     20  O   UNL     1       2.825  -0.159   2.625  0.00  0.00    +0.000 OA
BRANCH  20  21
ATOM     21  C   UNL     1       2.382   0.783   1.659  0.00  0.00    +0.000 C 
BRANCH  21  22
ATOM     22  C   UNL     1       2.462   0.164   0.273  0.00  0.00    +0.000 A 
ATOM     23  C   UNL     1       1.796   0.800  -0.811  0.00  0.00    +0.000 A 
ATOM     24  C   UNL     1       1.565   0.082  -1.995  0.00  0.00    +0.000 A 
ATOM     25  C   UNL     1       2.184  -1.042  -2.205  0.00  0.00    +0.000 A 
ATOM     26  C   UNL     1       3.090  -1.533  -1.256  0.00  0.00    +0.000 A 
ATOM     27  C   UNL     1       3.100  -0.986   0.051  0.00  0.00    +0.000 A 
ATOM     28 BR   UNL     1       4.036  -1.904   1.508  0.00  0.00    +0.000 Br
ENDBRANCH  21  22
ENDBRANCH  20  21
ENDBRANCH   5  20
TORSDOF 5
