
 OpenBabel03132514253D

 70 75  0  0  0  0  0  0  0  0999 V2000
    1.0522   -0.0447    0.0727 C   0  0  0  0  0  0  0  0  0  0  0  0
    0.5788    1.2940    0.0876 O   0  0  0  0  0  0  0  0  0  0  0  0
    0.9219    2.1563    1.1624 C   0  0  0  0  0  0  0  0  0  0  0  0
   -0.0102    3.0695    1.6270 C   0  0  0  0  0  0  0  0  0  0  0  0
    0.5561    4.1601    2.3285 C   0  0  0  0  0  0  0  0  0  0  0  0
   -0.2727    5.3603    2.5111 N   0  0  0  0  0  0  0  0  0  0  0  0
   -1.6562    5.2116    2.9792 C   0  0  0  0  0  0  0  0  0  0  0  0
   -1.9621    6.1649    4.1183 C   0  0  0  0  0  0  0  0  0  0  0  0
   -1.7567    7.5529    3.6874 N   0  0  0  0  0  0  0  0  0  0  0  0
   -2.6857    7.8738    2.5943 C   0  0  0  0  0  0  0  0  0  0  0  0
   -2.4319    6.9391    1.4228 C   0  0  0  0  0  0  0  0  0  0  0  0
   -4.1163    7.7024    3.0785 C   0  0  0  0  0  0  0  0  0  0  0  0
   -0.3732    7.7016    3.2193 C   0  0  0  0  0  0  0  0  0  0  0  0
   -0.0673    6.7483    2.0802 C   0  0  0  0  0  0  0  0  0  0  0  0
    1.7775    4.1747    2.8306 C   0  0  0  0  0  0  0  0  0  0  0  0
    2.6308    3.2049    2.3825 C   0  0  0  0  0  0  0  0  0  0  0  0
    2.1798    2.1794    1.5870 C   0  0  0  0  0  0  0  0  0  0  0  0
    3.0982    1.0980    1.2024 N   0  0  0  0  0  0  0  0  0  0  0  0
    4.4922    1.1169    1.6687 C   0  0  0  0  0  0  0  0  0  0  0  0
    4.6440    1.1026    2.9975 N   0  0  0  0  0  0  0  0  0  0  0  0
    5.9074    1.1270    3.4865 C   0  0  0  0  0  0  0  0  0  0  0  0
    6.1477    0.9992    4.9311 N   0  0  0  0  0  0  0  0  0  0  0  0
    7.5217    1.0267    5.4530 C   0  0  0  0  0  0  0  0  0  0  0  0
    8.0044   -0.0663    6.1535 C   0  0  0  0  0  0  0  0  0  0  0  0
    9.2107    0.1856    6.8488 C   0  0  0  0  0  0  0  0  0  0  0  0
   10.0187    1.2009    6.6032 C   0  0  0  0  0  0  0  0  0  0  0  0
    9.5047    2.2183    5.8481 C   0  0  0  0  0  0  0  0  0  0  0  0
   10.2367    3.3926    5.6891 N   0  0  0  0  0  0  0  0  0  0  0  0
    9.7225    4.4353    4.9221 C   0  0  0  0  0  0  0  0  0  0  0  0
    8.4340    4.2992    4.2933 C   0  0  0  0  0  0  0  0  0  0  0  0
    7.8034    3.1464    4.3760 C   0  0  0  0  0  0  0  0  0  0  0  0
    8.2765    2.0990    5.2439 C   0  0  0  0  0  0  0  0  0  0  0  0
    6.9948    1.2773    2.5899 C   0  0  0  0  0  0  0  0  0  0  0  0
    8.4429    1.4526    2.6271 C   0  0  0  0  0  0  0  0  0  0  0  0
    8.8455    1.4726    1.3345 C   0  0  0  0  0  0  0  0  0  0  0  0
    7.7778    1.3349    0.4608 N   0  0  0  0  0  0  0  0  0  0  0  0
    6.6421    1.2401    1.2314 C   0  0  0  0  0  0  0  0  0  0  0  0
    5.3991    1.1453    0.7127 N   0  0  0  0  0  0  0  0  0  0  0  0
    0.6955   -0.5393   -0.8066 H   0  0  0  0  0  0  0  0  0  0  0  0
    0.6955   -0.5589    0.9406 H   0  0  0  0  0  0  0  0  0  0  0  0
    2.1222   -0.0447    0.0727 H   0  0  0  0  0  0  0  0  0  0  0  0
   -1.0629    2.9602    1.4698 H   0  0  0  0  0  0  0  0  0  0  0  0
   -2.3126    5.4388    2.1653 H   0  0  0  0  0  0  0  0  0  0  0  0
   -1.8029    4.2071    3.3173 H   0  0  0  0  0  0  0  0  0  0  0  0
   -1.3060    5.9528    4.9365 H   0  0  0  0  0  0  0  0  0  0  0  0
   -2.9797    6.0364    4.4230 H   0  0  0  0  0  0  0  0  0  0  0  0
   -2.5335    8.8860    2.2825 H   0  0  0  0  0  0  0  0  0  0  0  0
   -2.5841    5.9270    1.7346 H   0  0  0  0  0  0  0  0  0  0  0  0
   -3.1081    7.1727    0.6272 H   0  0  0  0  0  0  0  0  0  0  0  0
   -1.4248    7.0598    1.0820 H   0  0  0  0  0  0  0  0  0  0  0  0
   -4.2949    8.3604    3.9031 H   0  0  0  0  0  0  0  0  0  0  0  0
   -4.7925    7.9361    2.2828 H   0  0  0  0  0  0  0  0  0  0  0  0
   -4.2685    6.6903    3.3903 H   0  0  0  0  0  0  0  0  0  0  0  0
    0.2832    7.4744    4.0332 H   0  0  0  0  0  0  0  0  0  0  0  0
   -0.2265    8.7061    2.8812 H   0  0  0  0  0  0  0  0  0  0  0  0
    0.9531    6.8744    1.7841 H   0  0  0  0  0  0  0  0  0  0  0  0
   -0.7160    6.9623    1.2565 H   0  0  0  0  0  0  0  0  0  0  0  0
    2.0828    4.9061    3.5494 H   0  0  0  0  0  0  0  0  0  0  0  0
    3.6647    3.2452    2.6552 H   0  0  0  0  0  0  0  0  0  0  0  0
    2.7683    0.3344    0.6120 H   0  0  0  0  0  0  0  0  0  0  0  0
    5.3610    0.8913    5.5714 H   0  0  0  0  0  0  0  0  0  0  0  0
    7.5100   -1.0151    6.1676 H   0  0  0  0  0  0  0  0  0  0  0  0
    9.4875   -0.4937    7.6278 H   0  0  0  0  0  0  0  0  0  0  0  0
   11.0217    1.2260    6.9751 H   0  0  0  0  0  0  0  0  0  0  0  0
   10.2848    5.3374    4.7999 H   0  0  0  0  0  0  0  0  0  0  0  0
    7.8716    3.3971    4.4154 H   0  0  0  0  0  0  0  0  0  0  0  0
    6.8477    3.0585    3.9030 H   0  0  0  0  0  0  0  0  0  0  0  0
    9.0595    1.5462    3.4966 H   0  0  0  0  0  0  0  0  0  0  0  0
    9.8639    1.5815    1.0249 H   0  0  0  0  0  0  0  0  0  0  0  0
    7.8253    1.3088   -0.5578 H   0  0  0  0  0  0  0  0  0  0  0  0
  1  2  1  0  0  0  0
  1 39  1  0  0  0  0
  1 40  1  0  0  0  0
  1 41  1  0  0  0  0
  2  3  1  0  0  0  0
  3  4  1  0  0  0  0
  3 17  2  0  0  0  0
  4  5  2  0  0  0  0
  4 42  1  0  0  0  0
  5  6  1  0  0  0  0
  5 15  1  0  0  0  0
  6  7  1  0  0  0  0
  6 14  1  0  0  0  0
  7  8  1  0  0  0  0
  7 43  1  0  0  0  0
  7 44  1  0  0  0  0
  8  9  1  0  0  0  0
  8 45  1  0  0  0  0
  8 46  1  0  0  0  0
  9 10  1  0  0  0  0
  9 13  1  0  0  0  0
 10 11  1  0  0  0  0
 10 12  1  0  0  0  0
 10 47  1  0  0  0  0
 11 48  1  0  0  0  0
 11 49  1  0  0  0  0
 11 50  1  0  0  0  0
 12 51  1  0  0  0  0
 12 52  1  0  0  0  0
 12 53  1  0  0  0  0
 13 14  1  0  0  0  0
 13 54  1  0  0  0  0
 13 55  1  0  0  0  0
 14 56  1  0  0  0  0
 14 57  1  0  0  0  0
 15 16  2  0  0  0  0
 15 58  1  0  0  0  0
 16 17  1  0  0  0  0
 16 59  1  0  0  0  0
 17 18  1  0  0  0  0
 18 19  1  0  0  0  0
 18 60  1  0  0  0  0
 19 20  1  0  0  0  0
 19 38  2  0  0  0  0
 20 21  2  0  0  0  0
 21 22  1  0  0  0  0
 21 33  1  0  0  0  0
 22 23  1  0  0  0  0
 22 61  1  0  0  0  0
 23 24  1  0  0  0  0
 23 32  2  0  0  0  0
 24 25  2  0  0  0  0
 24 62  1  0  0  0  0
 25 26  1  0  0  0  0
 25 63  1  0  0  0  0
 26 27  2  0  0  0  0
 26 64  1  0  0  0  0
 27 28  1  0  0  0  0
 27 32  1  0  0  0  0
 28 29  2  0  0  0  0
 29 30  1  0  0  0  0
 29 65  1  0  0  0  0
 30 31  2  0  0  0  0
 30 66  1  0  0  0  0
 31 32  1  0  0  0  0
 31 67  1  0  0  0  0
 33 34  1  0  0  0  0
 33 37  2  0  0  0  0
 34 35  2  0  0  0  0
 34 68  1  0  0  0  0
 35 36  1  0  0  0  0
 35 69  1  0  0  0  0
 36 37  1  0  0  0  0
 36 70  1  0  0  0  0
 37 38  1  0  0  0  0
M  END
