REMARK  Name = 
REMARK  12 active torsions:
REMARK  status: ('A' for Active; 'I' for Inactive)
REMARK    1  A    between atoms: C_1  and  O_2
REMARK    2  A    between atoms: O_2  and  C_3
REMARK    3  A    between atoms: C_5  and  C_6
REMARK    4  A    between atoms: C_7  and  N_8
REMARK    5  A    between atoms: N_8  and  C_9
REMARK    6  A    between atoms: C_10  and  C_12
REMARK    7  A    between atoms: C_12  and  N_13
REMARK    8  A    between atoms: N_13  and  C_14
REMARK    9  A    between atoms: N_13  and  C_15
REMARK   10  A    between atoms: C_17  and  N_18
REMARK   11  A    between atoms: N_22  and  C_23
REMARK   12  A    between atoms: C_29  and  C_30
REMARK                            x       y       z     vdW  Elec       q    Type
REMARK                         _______ _______ _______ _____ _____    ______ ____
ROOT
ATOM      1  N   UNL     1      -1.330   3.341   0.528  0.00  0.00    +0.000 N 
ATOM      2  C   UNL     1      -2.265   4.422   0.870  0.00  0.00    +0.000 A 
ATOM      3  N   UNL     1      -1.971   5.636   0.390  0.00  0.00    +0.000 NA
ATOM      4  C   UNL     1      -2.817   6.651   0.686  0.00  0.00    +0.000 A 
ATOM      5  N   UNL     1      -2.614   7.983   0.098  0.00  0.00    +0.000 N 
ATOM      6  C   UNL     1      -3.900   6.416   1.569  0.00  0.00    +0.000 A 
ATOM      7  C   UNL     1      -4.963   7.158   2.239  0.00  0.00    +0.000 A 
ATOM      8  C   UNL     1      -5.688   6.236   2.915  0.00  0.00    +0.000 A 
ATOM      9  N   UNL     1      -5.178   4.957   2.748  0.00  0.00    +0.000 N 
ATOM     10  C   UNL     1      -4.069   5.073   1.943  0.00  0.00    +0.000 A 
ATOM     11  N   UNL     1      -3.284   4.027   1.607  0.00  0.00    +0.000 NA
ATOM     12  H   UNL     1      -1.659   2.528   0.006  0.00  0.00    +0.000 HD
ATOM     13  H   UNL     1      -1.833   8.146  -0.537  0.00  0.00    +0.000 HD
ATOM     14  H   UNL     1      -5.554   4.097   3.146  0.00  0.00    +0.000 HD
ENDROOT
BRANCH   1  21
ATOM     15  C   UNL     1       0.954   2.412   0.615  0.00  0.00    +0.000 A 
ATOM     16  C   UNL     1       2.271   2.500   1.031  0.00  0.00    +0.000 A 
ATOM     17  C   UNL     1       2.744   3.591   1.747  0.00  0.00    +0.000 A 
ATOM     18  C   UNL     1       4.171   3.643   2.210  0.00  0.00    +0.000 C 
ATOM     19  C   UNL     1       1.830   4.607   2.049  0.00  0.00    +0.000 A 
ATOM     20  C   UNL     1       0.525   4.543   1.651  0.00  0.00    +0.000 A 
ATOM     21  C   UNL     1       0.079   3.430   0.938  0.00  0.00    +0.000 A 
BRANCH  19  22
ATOM     22  N   UNL     1       2.288   5.776   2.814  0.00  0.00    +0.000 N 
ATOM     23  C   UNL     1       1.345   6.855   3.142  0.00  0.00    +0.000 C 
ATOM     24  C   UNL     1       3.688   5.865   3.252  0.00  0.00    +0.000 C 
ATOM     25  O   UNL     1       4.504   4.933   2.968  0.00  0.00    +0.000 OA
BRANCH  24  26
ATOM     26  C   UNL     1       4.161   7.074   4.043  0.00  0.00    +0.000 C 
BRANCH  26  27
ATOM     27  N   UNL     1       3.960   8.292   3.245  0.00  0.00    +0.000 NA
ATOM     28  C   UNL     1       4.418   9.460   4.010  0.00  0.00    +0.000 C 
ATOM     29  C   UNL     1       4.729   8.192   1.996  0.00  0.00    +0.000 C 
ENDBRANCH  26  27
ENDBRANCH  24  26
ENDBRANCH  19  22
BRANCH  15  31
ATOM     30  C   UNL     1       1.084   0.043  -0.033  0.00  0.00    +0.000 C 
ATOM     31  O   UNL     1       0.611   1.359  -0.275  0.00  0.00    +0.000 OA
ENDBRANCH  15  31
ENDBRANCH   1  21
BRANCH   5  32
ATOM     32  C   UNL     1      -3.538   9.079   0.424  0.00  0.00    +0.000 A 
ATOM     33  C   UNL     1      -4.264   9.689  -0.558  0.00  0.00    +0.000 A 
ATOM     34  C   UNL     1      -5.134  10.728  -0.225  0.00  0.00    +0.000 A 
ATOM     35  C   UNL     1      -5.278  11.122   1.091  0.00  0.00    +0.000 A 
ATOM     36  C   UNL     1      -4.528  10.489   2.068  0.00  0.00    +0.000 A 
ATOM     37  F   UNL     1      -4.653  10.882   3.332  0.00  0.00    +0.000 F 
ATOM     38  C   UNL     1      -3.650   9.457   1.767  0.00  0.00    +0.000 A 
BRANCH  38  39
ATOM     39  C   UNL     1      -2.829   8.811   2.845  0.00  0.00    +0.000 C 
ATOM     40  N   UNL     1      -1.873   7.748   2.503  0.00  0.00    +0.000 N 
ATOM     41  O   UNL     1      -2.961   9.182   4.053  0.00  0.00    +0.000 OA
ATOM     42  H   UNL     1      -1.315   7.309   3.236  0.00  0.00    +0.000 HD
ATOM     43  H   UNL     1      -1.767   7.450   1.533  0.00  0.00    +0.000 HD
ENDBRANCH  38  39
ENDBRANCH   5  32
TORSDOF 7
