REMARK  Name = 
REMARK  10 active torsions:
REMARK  status: ('A' for Active; 'I' for Inactive)
REMARK    1  A    between atoms: C_1  and  C_2
REMARK    2  A    between atoms: C_2  and  N_3
REMARK    3  A    between atoms: C_4  and  C_5
REMARK    4  A    between atoms: C_15  and  O_16
REMARK    5  A    between atoms: O_16  and  C_17
REMARK    6  A    between atoms: C_21  and  N_22
REMARK    7  A    between atoms: C_23  and  C_25
REMARK    8  A    between atoms: C_28  and  N_29
REMARK    9  A    between atoms: N_29  and  C_30
REMARK   10  A    between atoms: N_29  and  C_31
REMARK                            x       y       z     vdW  Elec       q    Type
REMARK                         _______ _______ _______ _____ _____    ______ ____
ROOT
ATOM      1  O   UNL     1      -2.950  -4.721  -0.328  0.00  0.00    +0.000 OA
ENDROOT
BRANCH   1   8
ATOM      2  N   UNL     1       0.901  -1.970  -1.407  0.00  0.00    +0.000 N 
ATOM      3  C   UNL     1       2.126  -2.334  -1.763  0.00  0.00    +0.000 A 
ATOM      4  N   UNL     1       2.223  -3.649  -1.796  0.00  0.00    +0.000 NA
ATOM      5  C   UNL     1       1.032  -4.166  -1.458  0.00  0.00    +0.000 A 
ATOM      6  C   UNL     1       0.525  -5.468  -1.319  0.00  0.00    +0.000 A 
ATOM      7  N   UNL     1      -0.813  -5.626  -0.940  0.00  0.00    +0.000 NA
ATOM      8  C   UNL     1      -1.596  -4.533  -0.713  0.00  0.00    +0.000 A 
ATOM      9  C   UNL     1      -1.122  -3.285  -0.844  0.00  0.00    +0.000 A 
ATOM     10  C   UNL     1       0.171  -3.062  -1.209  0.00  0.00    +0.000 A 
BRANCH   3  11
ATOM     11  C   UNL     1       3.258  -1.373  -2.087  0.00  0.00    +0.000 A 
ATOM     12  N   UNL     1       4.176  -1.226  -3.610  0.00  0.00    +0.000 NA
ATOM     13  O   UNL     1       5.255   0.047  -3.142  0.00  0.00    +0.000 OA
ATOM     14  N   UNL     1       4.885   0.314  -1.860  0.00  0.00    +0.000 NA
ATOM     15  C   UNL     1       3.856  -0.400  -1.298  0.00  0.00    +0.000 A 
ATOM     16  N   UNL     1       3.407  -0.145   0.078  0.00  0.00    +0.000 N 
ATOM     17  H   UNL     1       3.863   0.575   0.638  0.00  0.00    +0.000 HD
ATOM     18  H   UNL     1       2.640  -0.689   0.473  0.00  0.00    +0.000 HD
ENDBRANCH   3  11
BRANCH   2  20
ATOM     19  C   UNL     1       0.918  -0.014   0.056  0.00  0.00    +0.000 C 
ATOM     20  C   UNL     1       0.411  -0.592  -1.256  0.00  0.00    +0.000 C 
ENDBRANCH   2  20
ENDBRANCH   1   8
BRANCH   1  21
ATOM     21  C   UNL     1      -3.471  -6.035  -0.183  0.00  0.00    +0.000 A 
ATOM     22  C   UNL     1      -2.937  -6.884   0.696  0.00  0.00    +0.000 A 
ATOM     23  C   UNL     1      -3.489  -8.190   0.810  0.00  0.00    +0.000 A 
ATOM     24  C   UNL     1      -4.364  -8.658  -0.184  0.00  0.00    +0.000 A 
ATOM     25  C   UNL     1      -4.877  -7.828  -1.043  0.00  0.00    +0.000 A 
ATOM     26  C   UNL     1      -4.567  -6.463  -0.972  0.00  0.00    +0.000 A 
BRANCH  25  27
ATOM     27  N   UNL     1      -5.783  -8.321  -2.090  0.00  0.00    +0.000 N 
ATOM     28  C   UNL     1      -6.109  -9.752  -2.166  0.00  0.00    +0.000 C 
ATOM     29  O   UNL     1      -6.892 -10.179  -3.071  0.00  0.00    +0.000 OA
ATOM     30  H   UNL     1      -6.186  -7.670  -2.764  0.00  0.00    +0.000 HD
BRANCH  28  31
ATOM     31  C   UNL     1      -5.509 -10.722  -1.161  0.00  0.00    +0.000 A 
ATOM     32  C   UNL     1      -5.438 -10.487   0.240  0.00  0.00    +0.000 A 
ATOM     33  C   UNL     1      -4.737 -11.389   1.056  0.00  0.00    +0.000 A 
ATOM     34  C   UNL     1      -4.394 -12.555   0.592  0.00  0.00    +0.000 A 
ATOM     35  C   UNL     1      -4.734 -12.917  -0.719  0.00  0.00    +0.000 A 
ATOM     36  C   UNL     1      -5.161 -11.922  -1.631  0.00  0.00    +0.000 A 
BRANCH  34  37
ATOM     37  N   UNL     1      -3.650 -13.495   1.443  0.00  0.00    +0.000 N 
ATOM     38  C   UNL     1      -3.293 -13.116   2.818  0.00  0.00    +0.000 C 
ATOM     39  C   UNL     1      -3.263 -14.813   0.920  0.00  0.00    +0.000 C 
ENDBRANCH  34  37
ENDBRANCH  28  31
ENDBRANCH  25  27
ENDBRANCH   1  21
TORSDOF 7
