
 OpenBabel03132514253D

 72 77  0  0  0  0  0  0  0  0999 V2000
    1.0225    0.0591   -0.0775 C   0  0  0  0  0  0  0  0  0  0  0  0
    0.5159   -0.3123   -1.4616 C   0  0  0  0  0  0  0  0  0  0  0  0
    1.0059   -1.6512   -1.8198 N   0  0  0  0  0  0  0  0  0  0  0  0
    2.0496   -1.9699   -2.5738 C   0  0  0  0  0  0  0  0  0  0  0  0
    3.0040   -0.9677   -3.2022 C   0  0  0  0  0  0  0  0  0  0  0  0
    3.3999   -0.8310   -4.9363 N   0  0  0  0  0  0  0  0  0  0  0  0
    4.5877    0.4278   -4.8346 O   0  0  0  0  0  0  0  0  0  0  0  0
    4.6420    0.6971   -3.5023 N   0  0  0  0  0  0  0  0  0  0  0  0
    3.8324   -0.0036   -2.6440 C   0  0  0  0  0  0  0  0  0  0  0  0
    3.8420    0.2552   -1.1970 N   0  0  0  0  0  0  0  0  0  0  0  0
    2.1421   -3.2791   -2.7011 N   0  0  0  0  0  0  0  0  0  0  0  0
    1.1321   -3.8395   -2.0196 C   0  0  0  0  0  0  0  0  0  0  0  0
    0.7106   -5.1579   -1.7874 C   0  0  0  0  0  0  0  0  0  0  0  0
   -0.4281   -5.3656   -0.9997 N   0  0  0  0  0  0  0  0  0  0  0  0
   -1.1038   -4.3039   -0.4759 C   0  0  0  0  0  0  0  0  0  0  0  0
   -2.2551   -4.5420    0.3205 O   0  0  0  0  0  0  0  0  0  0  0  0
   -2.6886   -5.8725    0.5619 C   0  0  0  0  0  0  0  0  0  0  0  0
   -1.8682   -6.7256    1.1776 C   0  0  0  0  0  0  0  0  0  0  0  0
   -2.3168   -8.0533    1.4231 C   0  0  0  0  0  0  0  0  0  0  0  0
   -3.4641   -8.5256    0.7651 C   0  0  0  0  0  0  0  0  0  0  0  0
   -4.2576   -7.6910    0.1606 C   0  0  0  0  0  0  0  0  0  0  0  0
   -5.4521   -8.1881   -0.5372 N   0  0  0  0  0  0  0  0  0  0  0  0
   -5.7491   -9.6278   -0.5516 C   0  0  0  0  0  0  0  0  0  0  0  0
   -6.7818  -10.0576   -1.1549 O   0  0  0  0  0  0  0  0  0  0  0  0
   -4.8211  -10.6023    0.1551 C   0  0  0  0  0  0  0  0  0  0  0  0
   -4.2973  -10.3826    1.4596 C   0  0  0  0  0  0  0  0  0  0  0  0
   -3.2761  -11.2176    1.9416 C   0  0  0  0  0  0  0  0  0  0  0  0
   -3.0042  -12.3327    1.3299 C   0  0  0  0  0  0  0  0  0  0  0  0
   -1.9642  -13.1707    1.8121 O   0  0  0  0  0  0  0  0  0  0  0  0
   -1.6666  -14.3884    1.1450 C   0  0  0  0  0  0  0  0  0  0  0  0
   -2.8943  -15.2844    1.1543 C   0  0  0  0  0  0  0  0  0  0  0  0
   -4.0014  -14.6060    0.4651 N   0  0  0  0  0  0  0  0  0  0  0  0
   -3.7546  -14.1347   -0.9098 C   0  0  0  0  0  0  0  0  0  0  0  0
   -2.7602  -12.9958   -0.8793 C   0  0  0  0  0  0  0  0  0  0  0  0
   -3.2308  -11.9273   -0.0578 O   0  0  0  0  0  0  0  0  0  0  0  0
   -3.4306  -12.3922    1.2773 C   0  0  0  0  0  0  0  0  0  0  0  0
   -4.4684  -13.4977    1.3224 C   0  0  0  0  0  0  0  0  0  0  0  0
   -3.7362  -12.7082    0.1956 C   0  0  0  0  0  0  0  0  0  0  0  0
   -4.5431  -11.7503   -0.4652 C   0  0  0  0  0  0  0  0  0  0  0  0
   -3.9754   -6.3186    0.1738 C   0  0  0  0  0  0  0  0  0  0  0  0
   -0.7099   -3.0400   -0.6927 C   0  0  0  0  0  0  0  0  0  0  0  0
    0.3899   -2.7687   -1.4487 C   0  0  0  0  0  0  0  0  0  0  0  0
    0.6659   -0.6540    0.6361 H   0  0  0  0  0  0  0  0  0  0  0  0
    0.6659    1.0336    0.1833 H   0  0  0  0  0  0  0  0  0  0  0  0
    2.0925    0.0591   -0.0775 H   0  0  0  0  0  0  0  0  0  0  0  0
   -0.5541   -0.3123   -1.4616 H   0  0  0  0  0  0  0  0  0  0  0  0
    0.8725    0.4007   -2.1752 H   0  0  0  0  0  0  0  0  0  0  0  0
    4.4598    0.9689   -0.8106 H   0  0  0  0  0  0  0  0  0  0  0  0
    3.2309   -0.2790   -0.5793 H   0  0  0  0  0  0  0  0  0  0  0  0
    1.2472   -5.9852   -2.2026 H   0  0  0  0  0  0  0  0  0  0  0  0
   -0.8899   -6.4167    1.4815 H   0  0  0  0  0  0  0  0  0  0  0  0
   -1.7850   -8.6859    2.1027 H   0  0  0  0  0  0  0  0  0  0  0  0
   -3.6855   -9.5725    0.7610 H   0  0  0  0  0  0  0  0  0  0  0  0
   -6.0749   -7.5342   -1.0114 H   0  0  0  0  0  0  0  0  0  0  0  0
   -4.6778   -9.5886    2.0676 H   0  0  0  0  0  0  0  0  0  0  0  0
   -2.7215  -10.9363    2.8124 H   0  0  0  0  0  0  0  0  0  0  0  0
   -1.3839  -14.1813    0.1340 H   0  0  0  0  0  0  0  0  0  0  0  0
   -0.8607  -14.8822    1.6466 H   0  0  0  0  0  0  0  0  0  0  0  0
   -2.6701  -16.2020    0.6516 H   0  0  0  0  0  0  0  0  0  0  0  0
   -3.1770  -15.4915    2.1653 H   0  0  0  0  0  0  0  0  0  0  0  0
   -4.6730  -13.7960   -1.3419 H   0  0  0  0  0  0  0  0  0  0  0  0
   -3.3600  -14.9375   -1.4970 H   0  0  0  0  0  0  0  0  0  0  0  0
   -1.8394  -13.3582   -0.4725 H   0  0  0  0  0  0  0  0  0  0  0  0
   -2.6133  -12.6328   -1.8750 H   0  0  0  0  0  0  0  0  0  0  0  0
   -3.7796  -11.5745    1.8727 H   0  0  0  0  0  0  0  0  0  0  0  0
   -2.5039  -12.7672    1.6589 H   0  0  0  0  0  0  0  0  0  0  0  0
   -5.4116  -13.1329    0.9728 H   0  0  0  0  0  0  0  0  0  0  0  0
   -4.5861  -13.8430    2.3283 H   0  0  0  0  0  0  0  0  0  0  0  0
   -3.6857  -13.7128   -0.1691 H   0  0  0  0  0  0  0  0  0  0  0  0
   -4.9238  -11.9441   -1.4462 H   0  0  0  0  0  0  0  0  0  0  0  0
   -4.7277   -5.6118   -0.1078 H   0  0  0  0  0  0  0  0  0  0  0  0
   -1.2679   -2.2332   -0.2654 H   0  0  0  0  0  0  0  0  0  0  0  0
  1  2  1  0  0  0  0
  1 43  1  0  0  0  0
  1 44  1  0  0  0  0
  1 45  1  0  0  0  0
  2  3  1  0  0  0  0
  2 46  1  0  0  0  0
  2 47  1  0  0  0  0
  3  4  1  0  0  0  0
  3 42  1  0  0  0  0
  4  5  1  0  0  0  0
  4 11  2  0  0  0  0
  5  6  2  0  0  0  0
  5  9  1  0  0  0  0
  6  7  1  0  0  0  0
  7  8  1  0  0  0  0
  8  9  2  0  0  0  0
  9 10  1  0  0  0  0
 10 48  1  0  0  0  0
 10 49  1  0  0  0  0
 11 12  1  0  0  0  0
 12 13  1  0  0  0  0
 12 42  2  0  0  0  0
 13 14  2  0  0  0  0
 13 50  1  0  0  0  0
 14 15  1  0  0  0  0
 15 16  1  0  0  0  0
 15 41  2  0  0  0  0
 16 17  1  0  0  0  0
 17 18  1  0  0  0  0
 17 40  2  0  0  0  0
 18 19  2  0  0  0  0
 18 51  1  0  0  0  0
 19 20  1  0  0  0  0
 19 52  1  0  0  0  0
 20 21  2  0  0  0  0
 20 53  1  0  0  0  0
 21 22  1  0  0  0  0
 21 40  1  0  0  0  0
 22 23  1  0  0  0  0
 22 54  1  0  0  0  0
 23 24  2  0  0  0  0
 23 25  1  0  0  0  0
 25 26  1  0  0  0  0
 25 39  2  0  0  0  0
 26 27  2  0  0  0  0
 26 55  1  0  0  0  0
 27 28  1  0  0  0  0
 27 56  1  0  0  0  0
 28 29  1  0  0  0  0
 28 38  2  0  0  0  0
 29 30  1  0  0  0  0
 30 31  1  0  0  0  0
 30 57  1  0  0  0  0
 30 58  1  0  0  0  0
 31 32  1  0  0  0  0
 31 59  1  0  0  0  0
 31 60  1  0  0  0  0
 32 33  1  0  0  0  0
 32 37  1  0  0  0  0
 33 34  1  0  0  0  0
 33 61  1  0  0  0  0
 33 62  1  0  0  0  0
 34 35  1  0  0  0  0
 34 63  1  0  0  0  0
 34 64  1  0  0  0  0
 35 36  1  0  0  0  0
 36 37  1  0  0  0  0
 36 65  1  0  0  0  0
 36 66  1  0  0  0  0
 37 67  1  0  0  0  0
 37 68  1  0  0  0  0
 38 39  1  0  0  0  0
 38 69  1  0  0  0  0
 39 70  1  0  0  0  0
 40 71  1  0  0  0  0
 41 42  1  0  0  0  0
 41 72  1  0  0  0  0
M  END
