REMARK  Name = 
REMARK  11 active torsions:
REMARK  status: ('A' for Active; 'I' for Inactive)
REMARK    1  A    between atoms: C_1  and  C_2
REMARK    2  A    between atoms: C_2  and  N_3
REMARK    3  A    between atoms: C_4  and  C_5
REMARK    4  A    between atoms: C_15  and  O_16
REMARK    5  A    between atoms: O_16  and  C_17
REMARK    6  A    between atoms: C_21  and  N_22
REMARK    7  A    between atoms: C_23  and  C_25
REMARK    8  A    between atoms: C_28  and  O_29
REMARK    9  A    between atoms: O_29  and  C_30
REMARK   10  A    between atoms: C_30  and  C_31
REMARK   11  A    between atoms: C_31  and  N_32
REMARK                            x       y       z     vdW  Elec       q    Type
REMARK                         _______ _______ _______ _____ _____    ______ ____
ROOT
ATOM      1  C   UNL     1      -2.689  -5.872   0.562  0.00  0.00    +0.000 A 
ATOM      2  C   UNL     1      -1.868  -6.726   1.178  0.00  0.00    +0.000 A 
ATOM      3  C   UNL     1      -2.317  -8.053   1.423  0.00  0.00    +0.000 A 
ATOM      4  C   UNL     1      -3.464  -8.526   0.765  0.00  0.00    +0.000 A 
ATOM      5  C   UNL     1      -4.258  -7.691   0.161  0.00  0.00    +0.000 A 
ATOM      6  C   UNL     1      -3.975  -6.319   0.174  0.00  0.00    +0.000 A 
ENDROOT
BRANCH   5   7
ATOM      7  N   UNL     1      -5.452  -8.188  -0.537  0.00  0.00    +0.000 N 
ATOM      8  C   UNL     1      -5.749  -9.628  -0.552  0.00  0.00    +0.000 C 
ATOM      9  O   UNL     1      -6.782 -10.058  -1.155  0.00  0.00    +0.000 OA
ATOM     10  H   UNL     1      -6.075  -7.534  -1.011  0.00  0.00    +0.000 HD
BRANCH   8  11
ATOM     11  C   UNL     1      -4.821 -10.602   0.155  0.00  0.00    +0.000 A 
ATOM     12  C   UNL     1      -4.297 -10.383   1.460  0.00  0.00    +0.000 A 
ATOM     13  C   UNL     1      -3.276 -11.218   1.942  0.00  0.00    +0.000 A 
ATOM     14  C   UNL     1      -3.004 -12.333   1.330  0.00  0.00    +0.000 A 
ATOM     15  C   UNL     1      -3.736 -12.708   0.196  0.00  0.00    +0.000 A 
ATOM     16  C   UNL     1      -4.543 -11.750  -0.465  0.00  0.00    +0.000 A 
BRANCH  14  17
ATOM     17  O   UNL     1      -1.964 -13.171   1.812  0.00  0.00    +0.000 OA
BRANCH  17  18
ATOM     18  C   UNL     1      -1.667 -14.388   1.145  0.00  0.00    +0.000 C 
BRANCH  18  19
ATOM     19  C   UNL     1      -2.894 -15.284   1.154  0.00  0.00    +0.000 C 
BRANCH  19  20
ATOM     20  N   UNL     1      -4.001 -14.606   0.465  0.00  0.00    +0.000 NA
ATOM     21  C   UNL     1      -3.755 -14.135  -0.910  0.00  0.00    +0.000 C 
ATOM     22  C   UNL     1      -2.760 -12.996  -0.879  0.00  0.00    +0.000 C 
ATOM     23  O   UNL     1      -3.231 -11.927  -0.058  0.00  0.00    +0.000 OA
ATOM     24  C   UNL     1      -3.431 -12.392   1.277  0.00  0.00    +0.000 C 
ATOM     25  C   UNL     1      -4.468 -13.498   1.322  0.00  0.00    +0.000 C 
ENDBRANCH  19  20
ENDBRANCH  18  19
ENDBRANCH  17  18
ENDBRANCH  14  17
ENDBRANCH   8  11
ENDBRANCH   5   7
BRANCH   1  26
ATOM     26  O   UNL     1      -2.255  -4.542   0.321  0.00  0.00    +0.000 OA
BRANCH  26  33
ATOM     27  N   UNL     1       1.006  -1.651  -1.820  0.00  0.00    +0.000 N 
ATOM     28  C   UNL     1       2.050  -1.970  -2.574  0.00  0.00    +0.000 A 
ATOM     29  N   UNL     1       2.142  -3.279  -2.701  0.00  0.00    +0.000 NA
ATOM     30  C   UNL     1       1.132  -3.840  -2.020  0.00  0.00    +0.000 A 
ATOM     31  C   UNL     1       0.711  -5.158  -1.787  0.00  0.00    +0.000 A 
ATOM     32  N   UNL     1      -0.428  -5.366  -1.000  0.00  0.00    +0.000 NA
ATOM     33  C   UNL     1      -1.104  -4.304  -0.476  0.00  0.00    +0.000 A 
ATOM     34  C   UNL     1      -0.710  -3.040  -0.693  0.00  0.00    +0.000 A 
ATOM     35  C   UNL     1       0.390  -2.769  -1.449  0.00  0.00    +0.000 A 
BRANCH  28  36
ATOM     36  C   UNL     1       3.004  -0.968  -3.202  0.00  0.00    +0.000 A 
ATOM     37  N   UNL     1       3.400  -0.831  -4.936  0.00  0.00    +0.000 NA
ATOM     38  O   UNL     1       4.588   0.428  -4.835  0.00  0.00    +0.000 OA
ATOM     39  N   UNL     1       4.642   0.697  -3.502  0.00  0.00    +0.000 NA
ATOM     40  C   UNL     1       3.832  -0.004  -2.644  0.00  0.00    +0.000 A 
ATOM     41  N   UNL     1       3.842   0.255  -1.197  0.00  0.00    +0.000 N 
ATOM     42  H   UNL     1       4.460   0.969  -0.811  0.00  0.00    +0.000 HD
ATOM     43  H   UNL     1       3.231  -0.279  -0.579  0.00  0.00    +0.000 HD
ENDBRANCH  28  36
BRANCH  27  45
ATOM     44  C   UNL     1       1.022   0.059  -0.077  0.00  0.00    +0.000 C 
ATOM     45  C   UNL     1       0.516  -0.312  -1.462  0.00  0.00    +0.000 C 
ENDBRANCH  27  45
ENDBRANCH  26  33
ENDBRANCH   1  26
TORSDOF 10
