
 OpenBabel03132514253D

 67 70  0  0  0  0  0  0  0  0999 V2000
    1.0842    0.0427   -0.0330 C   0  0  0  0  0  0  0  0  0  0  0  0
    0.6109    1.3594   -0.2747 O   0  0  0  0  0  0  0  0  0  0  0  0
    0.9539    2.4117    0.6150 C   0  0  0  0  0  0  0  0  0  0  0  0
    2.2711    2.4999    1.0311 C   0  0  0  0  0  0  0  0  0  0  0  0
    2.7441    3.5909    1.7470 C   0  0  0  0  0  0  0  0  0  0  0  0
    4.1712    3.6435    2.2100 C   0  0  0  0  0  0  0  0  0  0  0  0
    1.8304    4.6071    2.0486 C   0  0  0  0  0  0  0  0  0  0  0  0
    2.2879    5.7757    2.8140 N   0  0  0  0  0  0  0  0  0  0  0  0
    1.3448    6.8547    3.1418 C   0  0  0  0  0  0  0  0  0  0  0  0
    3.6883    5.8654    3.2517 C   0  0  0  0  0  0  0  0  0  0  0  0
    4.5036    4.9326    2.9684 O   0  0  0  0  0  0  0  0  0  0  0  0
    4.1613    7.0738    4.0432 C   0  0  0  0  0  0  0  0  0  0  0  0
    3.9600    8.2917    3.2450 N   0  0  0  0  0  0  0  0  0  0  0  0
    4.4175    9.4604    4.0104 C   0  0  0  0  0  0  0  0  0  0  0  0
    4.7294    8.1920    1.9964 C   0  0  0  0  0  0  0  0  0  0  0  0
    0.5251    4.5427    1.6511 C   0  0  0  0  0  0  0  0  0  0  0  0
    0.0787    3.4298    0.9378 C   0  0  0  0  0  0  0  0  0  0  0  0
   -1.3302    3.3406    0.5280 N   0  0  0  0  0  0  0  0  0  0  0  0
   -2.2650    4.4224    0.8698 C   0  0  0  0  0  0  0  0  0  0  0  0
   -1.9707    5.6356    0.3899 N   0  0  0  0  0  0  0  0  0  0  0  0
   -2.8172    6.6514    0.6859 C   0  0  0  0  0  0  0  0  0  0  0  0
   -2.6143    7.9832    0.0976 N   0  0  0  0  0  0  0  0  0  0  0  0
   -3.5375    9.0795    0.4243 C   0  0  0  0  0  0  0  0  0  0  0  0
   -4.2644    9.6892   -0.5585 C   0  0  0  0  0  0  0  0  0  0  0  0
   -5.1342   10.7279   -0.2250 C   0  0  0  0  0  0  0  0  0  0  0  0
   -5.2776   11.1217    1.0907 C   0  0  0  0  0  0  0  0  0  0  0  0
   -4.5282   10.4892    2.0676 C   0  0  0  0  0  0  0  0  0  0  0  0
   -4.6531   10.8823    3.3320 F   0  0  0  0  0  0  0  0  0  0  0  0
   -3.6504    9.4570    1.7670 C   0  0  0  0  0  0  0  0  0  0  0  0
   -2.8293    8.8108    2.8450 C   0  0  0  0  0  0  0  0  0  0  0  0
   -1.8726    7.7485    2.5030 N   0  0  0  0  0  0  0  0  0  0  0  0
   -2.9613    9.1823    4.0532 O   0  0  0  0  0  0  0  0  0  0  0  0
   -3.9004    6.4158    1.5692 C   0  0  0  0  0  0  0  0  0  0  0  0
   -4.9630    7.1583    2.2388 C   0  0  0  0  0  0  0  0  0  0  0  0
   -5.6881    6.2361    2.9149 C   0  0  0  0  0  0  0  0  0  0  0  0
   -5.1785    4.9575    2.7479 N   0  0  0  0  0  0  0  0  0  0  0  0
   -4.0687    5.0730    1.9431 C   0  0  0  0  0  0  0  0  0  0  0  0
   -3.2835    4.0272    1.6071 N   0  0  0  0  0  0  0  0  0  0  0  0
    0.7275   -0.6112   -0.8012 H   0  0  0  0  0  0  0  0  0  0  0  0
    0.7276   -0.2958    0.9174 H   0  0  0  0  0  0  0  0  0  0  0  0
    2.1542    0.0427   -0.0330 H   0  0  0  0  0  0  0  0  0  0  0  0
    2.9449    1.7033    0.7938 H   0  0  0  0  0  0  0  0  0  0  0  0
    4.6437    4.5167    1.8109 H   0  0  0  0  0  0  0  0  0  0  0  0
    4.1982    3.6805    3.2790 H   0  0  0  0  0  0  0  0  0  0  0  0
    4.6888    2.7710    1.8701 H   0  0  0  0  0  0  0  0  0  0  0  0
    1.2773    6.9588    4.2045 H   0  0  0  0  0  0  0  0  0  0  0  0
    1.6908    7.7727    2.7147 H   0  0  0  0  0  0  0  0  0  0  0  0
    0.3799    6.6179    2.7446 H   0  0  0  0  0  0  0  0  0  0  0  0
    3.6013    7.1464    4.9520 H   0  0  0  0  0  0  0  0  0  0  0  0
    5.2008    6.9654    4.2725 H   0  0  0  0  0  0  0  0  0  0  0  0
    5.4570    9.3520    4.2397 H   0  0  0  0  0  0  0  0  0  0  0  0
    4.2709   10.3469    3.4295 H   0  0  0  0  0  0  0  0  0  0  0  0
    3.8574    9.5330    4.9193 H   0  0  0  0  0  0  0  0  0  0  0  0
    5.7689    8.0836    2.2257 H   0  0  0  0  0  0  0  0  0  0  0  0
    4.3964    7.3414    1.4393 H   0  0  0  0  0  0  0  0  0  0  0  0
    4.5829    9.0785    1.4154 H   0  0  0  0  0  0  0  0  0  0  0  0
   -0.1497    5.3395    1.8850 H   0  0  0  0  0  0  0  0  0  0  0  0
   -1.6592    2.5281    0.0065 H   0  0  0  0  0  0  0  0  0  0  0  0
   -1.8329    8.1465   -0.5374 H   0  0  0  0  0  0  0  0  0  0  0  0
   -4.1676    9.3727   -1.5760 H   0  0  0  0  0  0  0  0  0  0  0  0
   -5.6927   11.2218   -0.9925 H   0  0  0  0  0  0  0  0  0  0  0  0
   -5.9586   11.9048    1.3514 H   0  0  0  0  0  0  0  0  0  0  0  0
   -1.3147    7.3094    3.2355 H   0  0  0  0  0  0  0  0  0  0  0  0
   -1.7666    7.4503    1.5334 H   0  0  0  0  0  0  0  0  0  0  0  0
   -5.1340    8.2140    2.2031 H   0  0  0  0  0  0  0  0  0  0  0  0
   -6.5497    6.4660    3.5062 H   0  0  0  0  0  0  0  0  0  0  0  0
   -5.5542    4.0966    3.1455 H   0  0  0  0  0  0  0  0  0  0  0  0
  1  2  1  0  0  0  0
  1 39  1  0  0  0  0
  1 40  1  0  0  0  0
  1 41  1  0  0  0  0
  2  3  1  0  0  0  0
  3  4  1  0  0  0  0
  3 17  2  0  0  0  0
  4  5  2  0  0  0  0
  4 42  1  0  0  0  0
  5  6  1  0  0  0  0
  5  7  1  0  0  0  0
  6 43  1  0  0  0  0
  6 44  1  0  0  0  0
  6 45  1  0  0  0  0
  7  8  1  0  0  0  0
  7 16  2  0  0  0  0
  8  9  1  0  0  0  0
  8 10  1  0  0  0  0
  9 46  1  0  0  0  0
  9 47  1  0  0  0  0
  9 48  1  0  0  0  0
 10 11  2  0  0  0  0
 10 12  1  0  0  0  0
 12 13  1  0  0  0  0
 12 49  1  0  0  0  0
 12 50  1  0  0  0  0
 13 14  1  0  0  0  0
 13 15  1  0  0  0  0
 14 51  1  0  0  0  0
 14 52  1  0  0  0  0
 14 53  1  0  0  0  0
 15 54  1  0  0  0  0
 15 55  1  0  0  0  0
 15 56  1  0  0  0  0
 16 17  1  0  0  0  0
 16 57  1  0  0  0  0
 17 18  1  0  0  0  0
 18 19  1  0  0  0  0
 18 58  1  0  0  0  0
 19 20  1  0  0  0  0
 19 38  2  0  0  0  0
 20 21  2  0  0  0  0
 21 22  1  0  0  0  0
 21 33  1  0  0  0  0
 22 23  1  0  0  0  0
 22 59  1  0  0  0  0
 23 24  1  0  0  0  0
 23 29  2  0  0  0  0
 24 25  2  0  0  0  0
 24 60  1  0  0  0  0
 25 26  1  0  0  0  0
 25 61  1  0  0  0  0
 26 27  2  0  0  0  0
 26 62  1  0  0  0  0
 27 28  1  0  0  0  0
 27 29  1  0  0  0  0
 29 30  1  0  0  0  0
 30 31  1  0  0  0  0
 30 32  2  0  0  0  0
 31 63  1  0  0  0  0
 31 64  1  0  0  0  0
 33 34  1  0  0  0  0
 33 37  2  0  0  0  0
 34 35  2  0  0  0  0
 34 65  1  0  0  0  0
 35 36  1  0  0  0  0
 35 66  1  0  0  0  0
 36 37  1  0  0  0  0
 36 67  1  0  0  0  0
 37 38  1  0  0  0  0
M  END
