
 OpenBabel03132514253D

 64 67  0  0  0  0  0  0  0  0999 V2000
    1.0158    0.0459    0.0874 C   0  0  0  0  0  0  0  0  0  0  0  0
    0.5425   -0.2872    1.3841 O   0  0  0  0  0  0  0  0  0  0  0  0
    0.8856   -1.5362    1.9660 C   0  0  0  0  0  0  0  0  0  0  0  0
    2.1670   -2.0587    1.9373 C   0  0  0  0  0  0  0  0  0  0  0  0
    2.5099   -3.2033    2.6435 C   0  0  0  0  0  0  0  0  0  0  0  0
    3.9013   -3.7622    2.5684 C   0  0  0  0  0  0  0  0  0  0  0  0
    1.5011   -3.8269    3.3862 C   0  0  0  0  0  0  0  0  0  0  0  0
    1.8196   -5.0476    4.1408 N   0  0  0  0  0  0  0  0  0  0  0  0
    0.7750   -5.7189    4.9276 C   0  0  0  0  0  0  0  0  0  0  0  0
    1.0503   -6.7742    5.5799 O   0  0  0  0  0  0  0  0  0  0  0  0
   -0.6345   -5.1508    4.9609 C   0  0  0  0  0  0  0  0  0  0  0  0
   -0.6000   -3.7864    5.5071 N   0  0  0  0  0  0  0  0  0  0  0  0
   -1.9631   -3.2370    5.5394 C   0  0  0  0  0  0  0  0  0  0  0  0
   -0.0521   -3.8182    6.8708 C   0  0  0  0  0  0  0  0  0  0  0  0
    0.2285   -3.3323    3.4291 C   0  0  0  0  0  0  0  0  0  0  0  0
   -0.0863   -2.1831    2.7034 C   0  0  0  0  0  0  0  0  0  0  0  0
   -1.4593   -1.6584    2.7238 N   0  0  0  0  0  0  0  0  0  0  0  0
   -2.4967   -2.3442    3.5076 C   0  0  0  0  0  0  0  0  0  0  0  0
   -2.2115   -2.4073    4.8128 N   0  0  0  0  0  0  0  0  0  0  0  0
   -3.1284   -2.9794    5.6301 C   0  0  0  0  0  0  0  0  0  0  0  0
   -2.9285   -2.9792    7.0864 N   0  0  0  0  0  0  0  0  0  0  0  0
   -3.9284   -3.6021    7.9656 C   0  0  0  0  0  0  0  0  0  0  0  0
   -4.5791   -2.7908    8.8513 C   0  0  0  0  0  0  0  0  0  0  0  0
   -5.5724   -3.3268    9.6715 C   0  0  0  0  0  0  0  0  0  0  0  0
   -5.9127   -4.6614    9.5730 C   0  0  0  0  0  0  0  0  0  0  0  0
   -5.2371   -5.4628    8.6690 C   0  0  0  0  0  0  0  0  0  0  0  0
   -5.5525   -6.7524    8.5886 F   0  0  0  0  0  0  0  0  0  0  0  0
   -4.2403   -4.9608    7.8438 C   0  0  0  0  0  0  0  0  0  0  0  0
   -3.5052   -5.8620    6.8944 C   0  0  0  0  0  0  0  0  0  0  0  0
   -2.4227   -5.3229    6.0587 N   0  0  0  0  0  0  0  0  0  0  0  0
   -3.8188   -7.0909    6.8132 O   0  0  0  0  0  0  0  0  0  0  0  0
   -4.2824   -3.5780    5.0654 C   0  0  0  0  0  0  0  0  0  0  0  0
   -5.4390   -4.3626    5.4846 C   0  0  0  0  0  0  0  0  0  0  0  0
   -6.1852   -4.5446    4.3695 C   0  0  0  0  0  0  0  0  0  0  0  0
   -5.6040   -3.9520    3.2590 N   0  0  0  0  0  0  0  0  0  0  0  0
   -4.4260   -3.3815    3.6826 C   0  0  0  0  0  0  0  0  0  0  0  0
   -3.5646   -2.7545    2.8531 N   0  0  0  0  0  0  0  0  0  0  0  0
    0.6592    1.0176   -0.1838 H   0  0  0  0  0  0  0  0  0  0  0  0
    0.6592   -0.6748   -0.6185 H   0  0  0  0  0  0  0  0  0  0  0  0
    2.0858    0.0459    0.0874 H   0  0  0  0  0  0  0  0  0  0  0  0
    2.9157   -1.5654    1.3532 H   0  0  0  0  0  0  0  0  0  0  0  0
    4.3209   -3.8077    3.5516 H   0  0  0  0  0  0  0  0  0  0  0  0
    3.8683   -4.7460    2.1489 H   0  0  0  0  0  0  0  0  0  0  0  0
    4.5062   -3.1313    1.9512 H   0  0  0  0  0  0  0  0  0  0  0  0
    2.7654   -5.4289    4.1184 H   0  0  0  0  0  0  0  0  0  0  0  0
   -1.0333   -5.1276    3.9683 H   0  0  0  0  0  0  0  0  0  0  0  0
   -1.2529   -5.7671    5.5795 H   0  0  0  0  0  0  0  0  0  0  0  0
   -2.5815   -3.8533    6.1579 H   0  0  0  0  0  0  0  0  0  0  0  0
   -1.9380   -2.2439    5.9369 H   0  0  0  0  0  0  0  0  0  0  0  0
   -2.3619   -3.2138    4.5467 H   0  0  0  0  0  0  0  0  0  0  0  0
   -0.6706   -4.4346    7.4894 H   0  0  0  0  0  0  0  0  0  0  0  0
    0.9400   -4.2182    6.8473 H   0  0  0  0  0  0  0  0  0  0  0  0
   -0.0271   -2.8252    7.2684 H   0  0  0  0  0  0  0  0  0  0  0  0
   -0.5210   -3.8225    4.0148 H   0  0  0  0  0  0  0  0  0  0  0  0
   -1.6922   -0.8184    2.1941 H   0  0  0  0  0  0  0  0  0  0  0  0
   -2.0960   -2.5468    7.4869 H   0  0  0  0  0  0  0  0  0  0  0  0
   -4.3289   -1.7525    8.9157 H   0  0  0  0  0  0  0  0  0  0  0  0
   -6.0731   -2.7006   10.3801 H   0  0  0  0  0  0  0  0  0  0  0  0
   -6.6877   -5.0704   10.1870 H   0  0  0  0  0  0  0  0  0  0  0  0
   -1.9232   -5.9351    5.4136 H   0  0  0  0  0  0  0  0  0  0  0  0
   -2.1710   -4.3366    6.1238 H   0  0  0  0  0  0  0  0  0  0  0  0
   -5.6532   -4.7202    6.4700 H   0  0  0  0  0  0  0  0  0  0  0  0
   -7.1109   -5.0807    4.3481 H   0  0  0  0  0  0  0  0  0  0  0  0
   -5.9780   -3.9411    2.3101 H   0  0  0  0  0  0  0  0  0  0  0  0
  1  2  1  0  0  0  0
  1 38  1  0  0  0  0
  1 39  1  0  0  0  0
  1 40  1  0  0  0  0
  2  3  1  0  0  0  0
  3  4  1  0  0  0  0
  3 16  2  0  0  0  0
  4  5  2  0  0  0  0
  4 41  1  0  0  0  0
  5  6  1  0  0  0  0
  5  7  1  0  0  0  0
  6 42  1  0  0  0  0
  6 43  1  0  0  0  0
  6 44  1  0  0  0  0
  7  8  1  0  0  0  0
  7 15  2  0  0  0  0
  8  9  1  0  0  0  0
  8 45  1  0  0  0  0
  9 10  2  0  0  0  0
  9 11  1  0  0  0  0
 11 12  1  0  0  0  0
 11 46  1  0  0  0  0
 11 47  1  0  0  0  0
 12 13  1  0  0  0  0
 12 14  1  0  0  0  0
 13 48  1  0  0  0  0
 13 49  1  0  0  0  0
 13 50  1  0  0  0  0
 14 51  1  0  0  0  0
 14 52  1  0  0  0  0
 14 53  1  0  0  0  0
 15 16  1  0  0  0  0
 15 54  1  0  0  0  0
 16 17  1  0  0  0  0
 17 18  1  0  0  0  0
 17 55  1  0  0  0  0
 18 19  1  0  0  0  0
 18 37  2  0  0  0  0
 19 20  2  0  0  0  0
 20 21  1  0  0  0  0
 20 32  1  0  0  0  0
 21 22  1  0  0  0  0
 21 56  1  0  0  0  0
 22 23  1  0  0  0  0
 22 28  2  0  0  0  0
 23 24  2  0  0  0  0
 23 57  1  0  0  0  0
 24 25  1  0  0  0  0
 24 58  1  0  0  0  0
 25 26  2  0  0  0  0
 25 59  1  0  0  0  0
 26 27  1  0  0  0  0
 26 28  1  0  0  0  0
 28 29  1  0  0  0  0
 29 30  1  0  0  0  0
 29 31  2  0  0  0  0
 30 60  1  0  0  0  0
 30 61  1  0  0  0  0
 32 33  1  0  0  0  0
 32 36  2  0  0  0  0
 33 34  2  0  0  0  0
 33 62  1  0  0  0  0
 34 35  1  0  0  0  0
 34 63  1  0  0  0  0
 35 36  1  0  0  0  0
 35 64  1  0  0  0  0
 36 37  1  0  0  0  0
M  END
