REMARK  Name = 
REMARK  8 active torsions:
REMARK  status: ('A' for Active; 'I' for Inactive)
REMARK    1  A    between atoms: C_1  and  O_2
REMARK    2  A    between atoms: O_2  and  C_3
REMARK    3  A    between atoms: N_9  and  C_10
REMARK    4  A    between atoms: C_12  and  O_13
REMARK    5  A    between atoms: O_13  and  C_14
REMARK    6  A    between atoms: C_14  and  C_15
REMARK    7  A    between atoms: C_14  and  C_16
REMARK    8  A    between atoms: C_23  and  C_24
REMARK                            x       y       z     vdW  Elec       q    Type
REMARK                         _______ _______ _______ _____ _____    ______ ____
ROOT
ATOM      1  C   UNL     1      -1.900   0.249   6.064  0.00  0.00    +0.000 A 
ATOM      2  C   UNL     1      -2.414   1.211   6.867  0.00  0.00    +0.000 A 
ATOM      3  C   UNL     1      -3.760   1.138   6.721  0.00  0.00    +0.000 A 
ATOM      4  C   UNL     1      -4.008   0.174   5.877  0.00  0.00    +0.000 A 
ATOM      5  S   UNL     1      -2.903  -0.357   5.489  0.00  0.00    +0.000 S 
ENDROOT
BRANCH   1  12
ATOM      6  C   UNL     1       0.784   0.277   2.424  0.00  0.00    +0.000 A 
ATOM      7  C   UNL     1       2.063  -0.088   2.703  0.00  0.00    +0.000 A 
ATOM      8  C   UNL     1       2.453  -0.407   3.957  0.00  0.00    +0.000 A 
ATOM      9  C   UNL     1       1.525  -0.376   5.000  0.00  0.00    +0.000 A 
ATOM     10  N   UNL     1       1.571  -0.631   6.317  0.00  0.00    +0.000 NA
ATOM     11  C   UNL     1       0.370  -0.434   6.820  0.00  0.00    +0.000 A 
ATOM     12  N   UNL     1      -0.475  -0.057   5.871  0.00  0.00    +0.000 N 
ATOM     13  C   UNL     1       0.182  -0.002   4.714  0.00  0.00    +0.000 A 
ATOM     14  C   UNL     1      -0.163   0.326   3.386  0.00  0.00    +0.000 A 
BRANCH   6  16
ATOM     15  C   UNL     1       0.914   0.047  -0.021  0.00  0.00    +0.000 C 
ATOM     16  O   UNL     1       0.441   0.738   1.125  0.00  0.00    +0.000 OA
ENDBRANCH   6  16
ENDBRANCH   1  12
BRANCH   4  17
ATOM     17  C   UNL     1      -5.393  -0.255   5.421  0.00  0.00    +0.000 C 
ATOM     18  N   UNL     1      -6.584   0.435   5.939  0.00  0.00    +0.000 N 
ATOM     19  O   UNL     1      -5.522  -1.210   4.592  0.00  0.00    +0.000 OA
ATOM     20  H   UNL     1      -7.513   0.147   5.633  0.00  0.00    +0.000 HD
ATOM     21  H   UNL     1      -6.481   1.201   6.604  0.00  0.00    +0.000 HD
ENDBRANCH   4  17
BRANCH   3  22
ATOM     22  O   UNL     1      -4.721   1.960   7.367  0.00  0.00    +0.000 OA
BRANCH  22  23
ATOM     23  C   UNL     1      -4.299   2.975   8.265  0.00  0.00    +0.000 C 
ATOM     24  C   UNL     1      -3.524   2.346   9.412  0.00  0.00    +0.000 C 
BRANCH  23  25
ATOM     25  C   UNL     1      -3.407   3.962   7.532  0.00  0.00    +0.000 A 
ATOM     26  C   UNL     1      -3.575   5.349   7.802  0.00  0.00    +0.000 A 
ATOM     27  C   UNL     1      -3.071   6.294   6.894  0.00  0.00    +0.000 A 
ATOM     28  C   UNL     1      -2.232   5.927   5.971  0.00  0.00    +0.000 A 
ATOM     29  C   UNL     1      -1.821   4.590   5.887  0.00  0.00    +0.000 A 
ATOM     30  C   UNL     1      -2.541   3.591   6.587  0.00  0.00    +0.000 A 
ATOM     31 CL   UNL     1      -2.294   1.869   6.212  0.00  0.00    +0.000 Cl
ENDBRANCH  23  25
ENDBRANCH  22  23
ENDBRANCH   3  22
TORSDOF 6
