REMARK  Name = 
REMARK  11 active torsions:
REMARK  status: ('A' for Active; 'I' for Inactive)
REMARK    1  A    between atoms: C_1  and  C_2
REMARK    2  A    between atoms: C_2  and  N_3
REMARK    3  A    between atoms: C_4  and  C_5
REMARK    4  A    between atoms: C_13  and  C_14
REMARK    5  A    between atoms: C_15  and  C_16
REMARK    6  A    between atoms: C_16  and  N_17
REMARK    7  A    between atoms: C_20  and  O_21
REMARK    8  A    between atoms: O_21  and  C_22
REMARK    9  A    between atoms: C_22  and  C_23
REMARK   10  A    between atoms: C_23  and  C_24
REMARK   11  A    between atoms: C_24  and  N_25
REMARK                            x       y       z     vdW  Elec       q    Type
REMARK                         _______ _______ _______ _____ _____    ______ ____
ROOT
ATOM      1  N   UNL     1       1.050  -0.541   2.455  0.00  0.00    +0.000 N 
ATOM      2  C   UNL     1       1.010   0.695   2.910  0.00  0.00    +0.000 A 
ATOM      3  N   UNL     1       1.428   0.740   4.167  0.00  0.00    +0.000 NA
ATOM      4  C   UNL     1       1.751  -0.493   4.553  0.00  0.00    +0.000 A 
ATOM      5  C   UNL     1       2.243  -1.068   5.744  0.00  0.00    +0.000 A 
ATOM      6  N   UNL     1       2.466  -2.399   5.794  0.00  0.00    +0.000 NA
ATOM      7  C   UNL     1       2.234  -3.200   4.721  0.00  0.00    +0.000 A 
ATOM      8  C   UNL     1       1.758  -2.706   3.556  0.00  0.00    +0.000 A 
ATOM      9  C   UNL     1       1.505  -1.339   3.436  0.00  0.00    +0.000 A 
ENDROOT
BRANCH   2  10
ATOM     10  C   UNL     1       0.549   1.899   2.106  0.00  0.00    +0.000 A 
ATOM     11  N   UNL     1       1.274   3.506   1.833  0.00  0.00    +0.000 NA
ATOM     12  O   UNL     1      -0.066   4.266   1.038  0.00  0.00    +0.000 OA
ATOM     13  N   UNL     1      -1.007   3.284   1.008  0.00  0.00    +0.000 NA
ATOM     14  C   UNL     1      -0.712   2.057   1.546  0.00  0.00    +0.000 A 
ATOM     15  N   UNL     1      -1.687   0.957   1.531  0.00  0.00    +0.000 N 
ATOM     16  H   UNL     1      -2.607   1.098   1.113  0.00  0.00    +0.000 HD
ATOM     17  H   UNL     1      -1.444   0.054   1.937  0.00  0.00    +0.000 HD
ENDBRANCH   2  10
BRANCH   1  19
ATOM     18  C   UNL     1       1.067  -0.001   0.075  0.00  0.00    +0.000 C 
ATOM     19  C   UNL     1       0.560  -0.964   1.136  0.00  0.00    +0.000 C 
ENDBRANCH   1  19
BRANCH   5  20
ATOM     20  C   UNL     1       2.519  -0.197   6.959  0.00  0.00    +0.000 C 
ATOM     21  C   UNL     1       2.756   0.549   8.001  0.00  0.00    +0.000 C 
BRANCH  21  22
ATOM     22  C   UNL     1       3.033   1.420   9.216  0.00  0.00    +0.000 C 
BRANCH  22  23
ATOM     23  N   UNL     1       4.476   1.681   9.314  0.00  0.00    +0.000 NA
ATOM     24  H   UNL     1       4.662   2.265  10.130  0.00  0.00    +0.000 HD
ATOM     25  H   UNL     1       4.976   0.796   9.409  0.00  0.00    +0.000 HD
ENDBRANCH  22  23
ENDBRANCH  21  22
ENDBRANCH   5  20
BRANCH   8  26
ATOM     26  O   UNL     1       1.517  -3.575   2.459  0.00  0.00    +0.000 OA
BRANCH  26  27
ATOM     27  C   UNL     1       1.776  -4.966   2.585  0.00  0.00    +0.000 C 
BRANCH  27  28
ATOM     28  C   UNL     1       3.246  -5.180   2.907  0.00  0.00    +0.000 C 
BRANCH  28  29
ATOM     29  C   UNL     1       3.586  -4.482   4.214  0.00  0.00    +0.000 C 
BRANCH  29  30
ATOM     30  N   UNL     1       2.760  -5.038   5.295  0.00  0.00    +0.000 NA
ATOM     31  H   UNL     1       2.988  -4.569   6.172  0.00  0.00    +0.000 HD
ATOM     32  H   UNL     1       1.774  -4.894   5.079  0.00  0.00    +0.000 HD
ENDBRANCH  29  30
ENDBRANCH  28  29
ENDBRANCH  27  28
ENDBRANCH  26  27
ENDBRANCH   8  26
TORSDOF 10
