
 OpenBabel03132514253D

 62 66  0  0  0  0  0  0  0  0999 V2000
    1.0092    0.0371    0.0924 C   0  0  0  0  0  0  0  0  0  0  0  0
    0.5026    0.6237   -1.2151 C   0  0  0  0  0  0  0  0  0  0  0  0
    0.9759   -0.1602   -2.3004 O   0  0  0  0  0  0  0  0  0  0  0  0
    2.3720   -0.3121   -2.5108 C   0  0  0  0  0  0  0  0  0  0  0  0
    3.2842   -0.5886   -1.4868 C   0  0  0  0  0  0  0  0  0  0  0  0
    4.5790   -0.6861   -1.9411 C   0  0  0  0  0  0  0  0  0  0  0  0
    5.7376   -0.9752   -1.0838 N   0  0  0  0  0  0  0  0  0  0  0  0
    5.8979   -2.0677   -0.3516 C   0  0  0  0  0  0  0  0  0  0  0  0
    7.0331   -2.0141    0.3147 N   0  0  0  0  0  0  0  0  0  0  0  0
    7.6428   -0.8547    0.0195 C   0  0  0  0  0  0  0  0  0  0  0  0
    8.8389   -0.2445    0.4024 C   0  0  0  0  0  0  0  0  0  0  0  0
    9.1663    0.9656   -0.1033 C   0  0  0  0  0  0  0  0  0  0  0  0
    8.3530    1.6188   -0.9744 C   0  0  0  0  0  0  0  0  0  0  0  0
    8.7425    2.8939   -1.4632 O   0  0  0  0  0  0  0  0  0  0  0  0
    9.9691    3.4716   -1.0412 C   0  0  0  0  0  0  0  0  0  0  0  0
   11.1102    2.5683   -1.4310 C   0  0  0  0  0  0  0  0  0  0  0  0
   11.1429    1.3607   -0.5004 C   0  0  0  0  0  0  0  0  0  0  0  0
   11.2739    1.7749    0.8985 N   0  0  0  0  0  0  0  0  0  0  0  0
   11.2893    0.5879    1.7591 C   0  0  0  0  0  0  0  0  0  0  0  0
   10.1616    2.6526    1.2805 C   0  0  0  0  0  0  0  0  0  0  0  0
   10.1018    3.8998    0.4010 C   0  0  0  0  0  0  0  0  0  0  0  0
    7.1830    1.0841   -1.3863 C   0  0  0  0  0  0  0  0  0  0  0  0
    6.7893   -0.1790   -0.8971 C   0  0  0  0  0  0  0  0  0  0  0  0
    4.6710   -0.4268   -3.6416 S   0  0  0  0  0  0  0  0  0  0  0  0
    2.9672   -0.2055   -3.7294 C   0  0  0  0  0  0  0  0  0  0  0  0
    2.2140    0.0764   -5.0193 C   0  0  0  0  0  0  0  0  0  0  0  0
    2.9450    0.1743   -6.2909 N   0  0  0  0  0  0  0  0  0  0  0  0
    0.9523    0.2276   -4.9983 O   0  0  0  0  0  0  0  0  0  0  0  0
   -1.0174    0.6237   -1.2151 C   0  0  0  0  0  0  0  0  0  0  0  0
   -1.7412   -0.5987   -1.1365 C   0  0  0  0  0  0  0  0  0  0  0  0
   -3.1135   -0.6074   -1.4353 C   0  0  0  0  0  0  0  0  0  0  0  0
   -3.7697    0.5129   -1.5125 C   0  0  0  0  0  0  0  0  0  0  0  0
   -3.1116    1.7293   -1.2875 C   0  0  0  0  0  0  0  0  0  0  0  0
   -1.6961    1.7699   -1.2888 C   0  0  0  0  0  0  0  0  0  0  0  0
   -0.8361    3.3252   -1.3873 Cl  0  0  0  0  0  0  0  0  0  0  0  0
    0.6526   -0.9665    0.1950 H   0  0  0  0  0  0  0  0  0  0  0  0
    0.6526    0.6278    0.9102 H   0  0  0  0  0  0  0  0  0  0  0  0
    2.0792    0.0371    0.0924 H   0  0  0  0  0  0  0  0  0  0  0  0
    0.8592    1.6272   -1.3177 H   0  0  0  0  0  0  0  0  0  0  0  0
    3.0050   -0.7110   -0.4611 H   0  0  0  0  0  0  0  0  0  0  0  0
    5.2027   -2.8799   -0.3077 H   0  0  0  0  0  0  0  0  0  0  0  0
    9.4937   -0.7328    1.0935 H   0  0  0  0  0  0  0  0  0  0  0  0
   10.0893    1.4207    0.1897 H   0  0  0  0  0  0  0  0  0  0  0  0
    9.9932    4.4082   -1.5582 H   0  0  0  0  0  0  0  0  0  0  0  0
   12.0327    3.1046   -1.3520 H   0  0  0  0  0  0  0  0  0  0  0  0
   10.9750    2.2378   -2.4396 H   0  0  0  0  0  0  0  0  0  0  0  0
   11.9889    0.7578   -0.7565 H   0  0  0  0  0  0  0  0  0  0  0  0
   10.2357    0.8054   -0.6168 H   0  0  0  0  0  0  0  0  0  0  0  0
   11.4104    0.8884    2.7789 H   0  0  0  0  0  0  0  0  0  0  0  0
   10.3667    0.0569    1.6509 H   0  0  0  0  0  0  0  0  0  0  0  0
   12.1021   -0.0476    1.4757 H   0  0  0  0  0  0  0  0  0  0  0  0
    9.2483    2.1097    1.1540 H   0  0  0  0  0  0  0  0  0  0  0  0
   10.2901    2.9522    2.2996 H   0  0  0  0  0  0  0  0  0  0  0  0
   10.9931    4.4779    0.5284 H   0  0  0  0  0  0  0  0  0  0  0  0
    9.2574    4.4955    0.6786 H   0  0  0  0  0  0  0  0  0  0  0  0
    6.5607    1.6137   -2.0771 H   0  0  0  0  0  0  0  0  0  0  0  0
    2.4396    0.3635   -7.1564 H   0  0  0  0  0  0  0  0  0  0  0  0
    3.9576    0.0529   -6.3077 H   0  0  0  0  0  0  0  0  0  0  0  0
   -1.2446   -1.5030   -0.8524 H   0  0  0  0  0  0  0  0  0  0  0  0
   -3.6192   -1.5359   -1.5994 H   0  0  0  0  0  0  0  0  0  0  0  0
   -4.8134    0.5056   -1.7482 H   0  0  0  0  0  0  0  0  0  0  0  0
   -3.6754    2.6224   -1.1156 H   0  0  0  0  0  0  0  0  0  0  0  0
  1  2  1  0  0  0  0
  1 36  1  0  0  0  0
  1 37  1  0  0  0  0
  1 38  1  0  0  0  0
  2  3  1  0  0  0  0
  2 29  1  0  0  0  0
  2 39  1  0  0  0  0
  3  4  1  0  0  0  0
  4  5  1  0  0  0  0
  4 25  2  0  0  0  0
  5  6  2  0  0  0  0
  5 40  1  0  0  0  0
  6  7  1  0  0  0  0
  6 24  1  0  0  0  0
  7  8  1  0  0  0  0
  7 23  1  0  0  0  0
  8  9  2  0  0  0  0
  8 41  1  0  0  0  0
  9 10  1  0  0  0  0
 10 11  1  0  0  0  0
 10 23  2  0  0  0  0
 11 12  2  0  0  0  0
 11 42  1  0  0  0  0
 12 13  1  0  0  0  0
 12 43  1  0  0  0  0
 13 14  1  0  0  0  0
 13 22  2  0  0  0  0
 14 15  1  0  0  0  0
 15 16  1  0  0  0  0
 15 21  1  0  0  0  0
 15 44  1  0  0  0  0
 16 17  1  0  0  0  0
 16 45  1  0  0  0  0
 16 46  1  0  0  0  0
 17 18  1  0  0  0  0
 17 47  1  0  0  0  0
 17 48  1  0  0  0  0
 18 19  1  0  0  0  0
 18 20  1  0  0  0  0
 19 49  1  0  0  0  0
 19 50  1  0  0  0  0
 19 51  1  0  0  0  0
 20 21  1  0  0  0  0
 20 52  1  0  0  0  0
 20 53  1  0  0  0  0
 21 54  1  0  0  0  0
 21 55  1  0  0  0  0
 22 23  1  0  0  0  0
 22 56  1  0  0  0  0
 24 25  1  0  0  0  0
 25 26  1  0  0  0  0
 26 27  1  0  0  0  0
 26 28  2  0  0  0  0
 27 57  1  0  0  0  0
 27 58  1  0  0  0  0
 29 30  1  0  0  0  0
 29 34  2  0  0  0  0
 30 31  2  0  0  0  0
 30 59  1  0  0  0  0
 31 32  1  0  0  0  0
 31 60  1  0  0  0  0
 32 33  2  0  0  0  0
 32 61  1  0  0  0  0
 33 34  1  0  0  0  0
 33 62  1  0  0  0  0
 34 35  1  0  0  0  0
M  END
