
 OpenBabel03132514253D

 58 61  0  0  0  0  0  0  0  0999 V2000
    0.9204    0.0492    0.0353 C   0  0  0  0  0  0  0  0  0  0  0  0
    0.4138   -1.3348   -0.3362 C   0  0  0  0  0  0  0  0  0  0  0  0
    0.9038   -2.3153    0.6433 N   0  0  0  0  0  0  0  0  0  0  0  0
    1.4871   -2.0990    1.8046 C   0  0  0  0  0  0  0  0  0  0  0  0
    1.9600   -0.7409    2.2970 C   0  0  0  0  0  0  0  0  0  0  0  0
    3.6577   -0.2716    2.5798 N   0  0  0  0  0  0  0  0  0  0  0  0
    3.4037    1.3941    2.9882 O   0  0  0  0  0  0  0  0  0  0  0  0
    2.0537    1.5341    2.8971 N   0  0  0  0  0  0  0  0  0  0  0  0
    1.2909    0.4515    2.5374 C   0  0  0  0  0  0  0  0  0  0  0  0
   -0.1704    0.5502    2.4121 N   0  0  0  0  0  0  0  0  0  0  0  0
    1.6039   -3.2309    2.4832 N   0  0  0  0  0  0  0  0  0  0  0  0
    1.0848   -4.2191    1.7561 C   0  0  0  0  0  0  0  0  0  0  0  0
    0.9201   -5.6086    1.9352 C   0  0  0  0  0  0  0  0  0  0  0  0
    1.4009   -6.2800    3.2113 C   0  0  0  0  0  0  0  0  0  0  0  0
    1.8134   -6.8559    4.3060 C   0  0  0  0  0  0  0  0  0  0  0  0
    2.2942   -7.5273    5.5821 C   0  0  0  0  0  0  0  0  0  0  0  0
    2.5270   -6.4734    6.6523 C   0  0  0  0  0  0  0  0  0  0  0  0
    1.2425   -8.5139    6.0628 C   0  0  0  0  0  0  0  0  0  0  0  0
    3.5083   -8.2175    5.3253 O   0  0  0  0  0  0  0  0  0  0  0  0
    0.3311   -6.3368    0.9619 N   0  0  0  0  0  0  0  0  0  0  0  0
   -0.1020   -5.7641   -0.1920 C   0  0  0  0  0  0  0  0  0  0  0  0
    0.0244   -4.4372   -0.4169 C   0  0  0  0  0  0  0  0  0  0  0  0
   -0.4502   -3.8715   -1.6298 O   0  0  0  0  0  0  0  0  0  0  0  0
   -1.0589   -4.7001   -2.6093 C   0  0  0  0  0  0  0  0  0  0  0  0
   -0.0690   -5.7611   -3.0616 C   0  0  0  0  0  0  0  0  0  0  0  0
   -0.1657   -6.8188   -4.1588 C   0  0  0  0  0  0  0  0  0  0  0  0
   -0.9562   -8.0186   -3.6835 C   0  0  0  0  0  0  0  0  0  0  0  0
   -0.3391   -8.5994   -2.4841 N   0  0  0  0  0  0  0  0  0  0  0  0
   -0.3600   -7.6157   -1.4031 C   0  0  0  0  0  0  0  0  0  0  0  0
    0.4553   -6.3869   -1.7704 C   0  0  0  0  0  0  0  0  0  0  0  0
    0.6235   -3.6250    0.5480 C   0  0  0  0  0  0  0  0  0  0  0  0
    0.5638    0.3099    1.0099 H   0  0  0  0  0  0  0  0  0  0  0  0
    0.5638    0.7629   -0.6777 H   0  0  0  0  0  0  0  0  0  0  0  0
    1.9904    0.0492    0.0353 H   0  0  0  0  0  0  0  0  0  0  0  0
   -0.6562   -1.3348   -0.3362 H   0  0  0  0  0  0  0  0  0  0  0  0
    0.7704   -1.5955   -1.3108 H   0  0  0  0  0  0  0  0  0  0  0  0
   -0.6391    1.4376    2.5941 H   0  0  0  0  0  0  0  0  0  0  0  0
   -0.7157   -0.2689    2.1433 H   0  0  0  0  0  0  0  0  0  0  0  0
    1.6121   -5.9534    6.8458 H   0  0  0  0  0  0  0  0  0  0  0  0
    2.8654   -6.9460    7.5507 H   0  0  0  0  0  0  0  0  0  0  0  0
    3.2673   -5.7789    6.3140 H   0  0  0  0  0  0  0  0  0  0  0  0
    1.0786   -9.2558    5.3094 H   0  0  0  0  0  0  0  0  0  0  0  0
    1.5809   -8.9865    6.9611 H   0  0  0  0  0  0  0  0  0  0  0  0
    0.3276   -7.9939    6.2562 H   0  0  0  0  0  0  0  0  0  0  0  0
    3.8246   -8.6592    6.1649 H   0  0  0  0  0  0  0  0  0  0  0  0
   -0.5546   -6.3792   -0.9415 H   0  0  0  0  0  0  0  0  0  0  0  0
   -1.9220   -5.1733   -2.1896 H   0  0  0  0  0  0  0  0  0  0  0  0
   -1.3515   -4.1043   -3.4485 H   0  0  0  0  0  0  0  0  0  0  0  0
    0.5038   -5.1378   -3.7159 H   0  0  0  0  0  0  0  0  0  0  0  0
   -0.6664   -6.3917   -5.0025 H   0  0  0  0  0  0  0  0  0  0  0  0
    0.8203   -7.1338   -4.4298 H   0  0  0  0  0  0  0  0  0  0  0  0
   -1.9505   -7.7045   -3.4432 H   0  0  0  0  0  0  0  0  0  0  0  0
   -0.9791   -8.7550   -4.4594 H   0  0  0  0  0  0  0  0  0  0  0  0
   -0.8613   -9.4284   -2.2001 H   0  0  0  0  0  0  0  0  0  0  0  0
    0.0677   -8.0602   -0.5288 H   0  0  0  0  0  0  0  0  0  0  0  0
   -1.3718   -7.3216   -1.2169 H   0  0  0  0  0  0  0  0  0  0  0  0
    1.4739   -6.6796   -1.9173 H   0  0  0  0  0  0  0  0  0  0  0  0
    0.3871   -5.6700   -0.9790 H   0  0  0  0  0  0  0  0  0  0  0  0
  1  2  1  0  0  0  0
  1 32  1  0  0  0  0
  1 33  1  0  0  0  0
  1 34  1  0  0  0  0
  2  3  1  0  0  0  0
  2 35  1  0  0  0  0
  2 36  1  0  0  0  0
  3  4  1  0  0  0  0
  3 31  1  0  0  0  0
  4  5  1  0  0  0  0
  4 11  2  0  0  0  0
  5  6  2  0  0  0  0
  5  9  1  0  0  0  0
  6  7  1  0  0  0  0
  7  8  1  0  0  0  0
  8  9  2  0  0  0  0
  9 10  1  0  0  0  0
 10 37  1  0  0  0  0
 10 38  1  0  0  0  0
 11 12  1  0  0  0  0
 12 13  1  0  0  0  0
 12 31  2  0  0  0  0
 13 14  1  0  0  0  0
 13 20  2  0  0  0  0
 14 15  3  0  0  0  0
 15 16  1  0  0  0  0
 16 17  1  0  0  0  0
 16 18  1  0  0  0  0
 16 19  1  0  0  0  0
 17 39  1  0  0  0  0
 17 40  1  0  0  0  0
 17 41  1  0  0  0  0
 18 42  1  0  0  0  0
 18 43  1  0  0  0  0
 18 44  1  0  0  0  0
 19 45  1  0  0  0  0
 20 21  1  0  0  0  0
 21 22  2  0  0  0  0
 21 46  1  0  0  0  0
 22 23  1  0  0  0  0
 22 31  1  0  0  0  0
 23 24  1  0  0  0  0
 24 25  1  0  0  0  0
 24 47  1  0  0  0  0
 24 48  1  0  0  0  0
 25 26  1  0  0  0  0
 25 30  1  0  0  0  0
 25 49  1  0  0  0  0
 26 27  1  0  0  0  0
 26 50  1  0  0  0  0
 26 51  1  0  0  0  0
 27 28  1  0  0  0  0
 27 52  1  0  0  0  0
 27 53  1  0  0  0  0
 28 29  1  0  0  0  0
 28 54  1  0  0  0  0
 29 30  1  0  0  0  0
 29 55  1  0  0  0  0
 29 56  1  0  0  0  0
 30 57  1  0  0  0  0
 30 58  1  0  0  0  0
M  END
