REMARK  Name = 
REMARK  11 active torsions:
REMARK  status: ('A' for Active; 'I' for Inactive)
REMARK    1  A    between atoms: C_1  and  C_2
REMARK    2  A    between atoms: C_2  and  N_3
REMARK    3  A    between atoms: C_4  and  C_5
REMARK    4  A    between atoms: C_13  and  C_14
REMARK    5  A    between atoms: C_15  and  C_16
REMARK    6  A    between atoms: C_16  and  C_17
REMARK    7  A    between atoms: C_16  and  C_18
REMARK    8  A    between atoms: C_16  and  O_19
REMARK    9  A    between atoms: C_22  and  O_23
REMARK   10  A    between atoms: O_23  and  C_24
REMARK   11  A    between atoms: C_24  and  C_25
REMARK                            x       y       z     vdW  Elec       q    Type
REMARK                         _______ _______ _______ _____ _____    ______ ____
ROOT
ATOM      1  N   UNL     1       1.025  -1.400  -1.962  0.00  0.00    +0.000 N 
ATOM      2  C   UNL     1       1.899  -1.633  -2.920  0.00  0.00    +0.000 A 
ATOM      3  N   UNL     1       1.986  -2.933  -3.162  0.00  0.00    +0.000 NA
ATOM      4  C   UNL     1       1.153  -3.575  -2.345  0.00  0.00    +0.000 A 
ATOM      5  C   UNL     1       0.809  -4.927  -2.131  0.00  0.00    +0.000 A 
ATOM      6  N   UNL     1      -0.106  -5.237  -1.187  0.00  0.00    +0.000 NA
ATOM      7  C   UNL     1      -0.711  -4.276  -0.440  0.00  0.00    +0.000 A 
ATOM      8  C   UNL     1      -0.418  -2.966  -0.597  0.00  0.00    +0.000 A 
ATOM      9  C   UNL     1       0.520  -2.575  -1.554  0.00  0.00    +0.000 A 
ENDROOT
BRANCH   2  10
ATOM     10  C   UNL     1       2.695  -0.562  -3.647  0.00  0.00    +0.000 A 
ATOM     11  N   UNL     1       2.773  -0.355  -5.417  0.00  0.00    +0.000 NA
ATOM     12  O   UNL     1       3.952   0.914  -5.480  0.00  0.00    +0.000 OA
ATOM     13  N   UNL     1       4.243   1.134  -4.170  0.00  0.00    +0.000 NA
ATOM     14  C   UNL     1       3.604   0.391  -3.208  0.00  0.00    +0.000 A 
ATOM     15  N   UNL     1       3.871   0.596  -1.777  0.00  0.00    +0.000 N 
ATOM     16  H   UNL     1       4.543   1.303  -1.480  0.00  0.00    +0.000 HD
ATOM     17  H   UNL     1       3.383   0.031  -1.082  0.00  0.00    +0.000 HD
ENDBRANCH   2  10
BRANCH   1  19
ATOM     18  C   UNL     1       1.042   0.087  -0.026  0.00  0.00    +0.000 C 
ATOM     19  C   UNL     1       0.535  -0.114  -1.445  0.00  0.00    +0.000 C 
ENDBRANCH   1  19
BRANCH   5  20
ATOM     20  C   UNL     1       1.463  -6.024  -2.956  0.00  0.00    +0.000 C 
ATOM     21  C   UNL     1       2.023  -6.965  -3.663  0.00  0.00    +0.000 C 
BRANCH  21  22
ATOM     22  C   UNL     1       2.677  -8.062  -4.487  0.00  0.00    +0.000 C 
ATOM     23  C   UNL     1       2.313  -9.418  -3.905  0.00  0.00    +0.000 C 
ATOM     24  C   UNL     1       2.184  -7.979  -5.923  0.00  0.00    +0.000 C 
BRANCH  22  25
ATOM     25  O   UNL     1       4.087  -7.898  -4.461  0.00  0.00    +0.000 OA
ATOM     26  H   UNL     1       4.517  -8.620  -5.003  0.00  0.00    +0.000 HD
ENDBRANCH  22  25
ENDBRANCH  21  22
ENDBRANCH   5  20
BRANCH   8  27
ATOM     27  O   UNL     1      -1.062  -1.990   0.210  0.00  0.00    +0.000 OA
BRANCH  27  28
ATOM     28  C   UNL     1      -2.015  -2.391   1.183  0.00  0.00    +0.000 C 
BRANCH  28  29
ATOM     29  C   UNL     1      -3.162  -3.117   0.500  0.00  0.00    +0.000 C 
ATOM     30  C   UNL     1      -4.497  -2.621   0.982  0.00  0.00    +0.000 C 
ATOM     31  C   UNL     1      -5.471  -3.759   0.548  0.00  0.00    +0.000 C 
ATOM     32  C   UNL     1      -4.622  -5.024   0.695  0.00  0.00    +0.000 C 
ATOM     33  N   UNL     1      -3.204  -4.538   0.894  0.00  0.00    +0.000 NA
ATOM     34  H   UNL     1      -2.937  -4.635   1.873  0.00  0.00    +0.000 HD
ENDBRANCH  28  29
ENDBRANCH  27  28
ENDBRANCH   8  27
TORSDOF 8
