
 OpenBabel03132514253D

 51 53  0  0  0  0  0  0  0  0999 V2000
    1.0870   -0.0483   -0.0099 C   0  0  0  0  0  0  0  0  0  0  0  0
    0.5803    0.4475    1.3346 C   0  0  0  0  0  0  0  0  0  0  0  0
    1.0703    1.8134    1.5695 N   0  0  0  0  0  0  0  0  0  0  0  0
    0.4001    2.9102    1.2420 C   0  0  0  0  0  0  0  0  0  0  0  0
   -0.9532    2.9258    0.5502 C   0  0  0  0  0  0  0  0  0  0  0  0
   -1.4061    3.6444   -1.0185 N   0  0  0  0  0  0  0  0  0  0  0  0
   -3.0864    3.2176   -1.0260 O   0  0  0  0  0  0  0  0  0  0  0  0
   -3.2433    2.5522    0.1500 N   0  0  0  0  0  0  0  0  0  0  0  0
   -2.1592    2.3845    0.9744 C   0  0  0  0  0  0  0  0  0  0  0  0
   -2.2699    1.6633    2.2505 N   0  0  0  0  0  0  0  0  0  0  0  0
    1.0739    3.9852    1.6014 N   0  0  0  0  0  0  0  0  0  0  0  0
    2.2198    3.5900    2.1753 C   0  0  0  0  0  0  0  0  0  0  0  0
    3.3187    4.2533    2.7429 C   0  0  0  0  0  0  0  0  0  0  0  0
    3.3687    5.7716    2.7943 C   0  0  0  0  0  0  0  0  0  0  0  0
    3.4116    7.0740    2.8384 C   0  0  0  0  0  0  0  0  0  0  0  0
    3.4616    8.5923    2.8897 C   0  0  0  0  0  0  0  0  0  0  0  0
    2.3909    9.1657    1.9759 C   0  0  0  0  0  0  0  0  0  0  0  0
    3.2147    9.0594    4.3150 C   0  0  0  0  0  0  0  0  0  0  0  0
    4.7393    9.0386    2.4600 O   0  0  0  0  0  0  0  0  0  0  0  0
    4.3679    3.4842    3.2606 N   0  0  0  0  0  0  0  0  0  0  0  0
    4.3121    2.1232    3.2090 C   0  0  0  0  0  0  0  0  0  0  0  0
    5.3890    1.3666    3.7422 O   0  0  0  0  0  0  0  0  0  0  0  0
    6.5046    2.0288    4.3195 C   0  0  0  0  0  0  0  0  0  0  0  0
    7.1616    2.9178    3.2762 C   0  0  0  0  0  0  0  0  0  0  0  0
    6.1917    3.9152    2.8014 N   0  0  0  0  0  0  0  0  0  0  0  0
    6.8271    4.7749    1.7925 C   0  0  0  0  0  0  0  0  0  0  0  0
    3.2669    1.4796    2.6678 C   0  0  0  0  0  0  0  0  0  0  0  0
    2.2132    2.1678    2.1475 C   0  0  0  0  0  0  0  0  0  0  0  0
    0.7303    0.5968   -0.7854 H   0  0  0  0  0  0  0  0  0  0  0  0
    0.7303   -1.0426   -0.1809 H   0  0  0  0  0  0  0  0  0  0  0  0
    2.1570   -0.0483   -0.0099 H   0  0  0  0  0  0  0  0  0  0  0  0
   -0.4897    0.4475    1.3346 H   0  0  0  0  0  0  0  0  0  0  0  0
    0.9370   -0.1976    2.1102 H   0  0  0  0  0  0  0  0  0  0  0  0
   -3.1672    1.2744    2.5404 H   0  0  0  0  0  0  0  0  0  0  0  0
   -1.4494    1.5517    2.8461 H   0  0  0  0  0  0  0  0  0  0  0  0
    1.4281    8.8294    2.2997 H   0  0  0  0  0  0  0  0  0  0  0  0
    2.4261   10.2346    2.0121 H   0  0  0  0  0  0  0  0  0  0  0  0
    2.5647    8.8369    0.9727 H   0  0  0  0  0  0  0  0  0  0  0  0
    3.9685    8.6558    4.9582 H   0  0  0  0  0  0  0  0  0  0  0  0
    3.2499   10.1282    4.3511 H   0  0  0  0  0  0  0  0  0  0  0  0
    2.2519    8.7231    4.6388 H   0  0  0  0  0  0  0  0  0  0  0  0
    4.7722   10.0375    2.4938 H   0  0  0  0  0  0  0  0  0  0  0  0
    6.1768    2.6279    5.1432 H   0  0  0  0  0  0  0  0  0  0  0  0
    7.2106    1.3028    4.6651 H   0  0  0  0  0  0  0  0  0  0  0  0
    8.0023    3.4168    3.7112 H   0  0  0  0  0  0  0  0  0  0  0  0
    7.4895    2.3187    2.4525 H   0  0  0  0  0  0  0  0  0  0  0  0
    5.3903    3.4395    2.3867 H   0  0  0  0  0  0  0  0  0  0  0  0
    7.1549    4.1759    0.9687 H   0  0  0  0  0  0  0  0  0  0  0  0
    6.1211    5.5009    1.4468 H   0  0  0  0  0  0  0  0  0  0  0  0
    7.6678    5.2739    2.2274 H   0  0  0  0  0  0  0  0  0  0  0  0
    3.2610    0.4099    2.6445 H   0  0  0  0  0  0  0  0  0  0  0  0
  1  2  1  0  0  0  0
  1 29  1  0  0  0  0
  1 30  1  0  0  0  0
  1 31  1  0  0  0  0
  2  3  1  0  0  0  0
  2 32  1  0  0  0  0
  2 33  1  0  0  0  0
  3  4  1  0  0  0  0
  3 28  1  0  0  0  0
  4  5  1  0  0  0  0
  4 11  2  0  0  0  0
  5  6  2  0  0  0  0
  5  9  1  0  0  0  0
  6  7  1  0  0  0  0
  7  8  1  0  0  0  0
  8  9  2  0  0  0  0
  9 10  1  0  0  0  0
 10 34  1  0  0  0  0
 10 35  1  0  0  0  0
 11 12  1  0  0  0  0
 12 13  1  0  0  0  0
 12 28  2  0  0  0  0
 13 14  1  0  0  0  0
 13 20  2  0  0  0  0
 14 15  3  0  0  0  0
 15 16  1  0  0  0  0
 16 17  1  0  0  0  0
 16 18  1  0  0  0  0
 16 19  1  0  0  0  0
 17 36  1  0  0  0  0
 17 37  1  0  0  0  0
 17 38  1  0  0  0  0
 18 39  1  0  0  0  0
 18 40  1  0  0  0  0
 18 41  1  0  0  0  0
 19 42  1  0  0  0  0
 20 21  1  0  0  0  0
 21 22  1  0  0  0  0
 21 27  2  0  0  0  0
 22 23  1  0  0  0  0
 23 24  1  0  0  0  0
 23 43  1  0  0  0  0
 23 44  1  0  0  0  0
 24 25  1  0  0  0  0
 24 45  1  0  0  0  0
 24 46  1  0  0  0  0
 25 26  1  0  0  0  0
 25 47  1  0  0  0  0
 26 48  1  0  0  0  0
 26 49  1  0  0  0  0
 26 50  1  0  0  0  0
 27 28  1  0  0  0  0
 27 51  1  0  0  0  0
M  END
