
 OpenBabel03132514253D

 67 71  0  0  0  0  0  0  0  0999 V2000
    0.9062    0.0068    0.0339 C   0  0  0  0  0  0  0  0  0  0  0  0
    0.3995   -0.5920    1.3359 C   0  0  0  0  0  0  0  0  0  0  0  0
    0.9062    0.2361    2.5055 C   0  0  0  0  0  0  0  0  0  0  0  0
    0.4162    1.6161    2.3775 N   0  0  0  0  0  0  0  0  0  0  0  0
    0.3483    1.9527    0.9439 C   0  0  0  0  0  0  0  0  0  0  0  0
   -0.3196    3.3279    0.7832 C   0  0  0  0  0  0  0  0  0  0  0  0
    0.2815    4.3388    1.7257 C   0  0  0  0  0  0  0  0  0  0  0  0
    0.9169    3.9846    2.8211 C   0  0  0  0  0  0  0  0  0  0  0  0
    1.4903    5.0866    3.6969 C   0  0  0  0  0  0  0  0  0  0  0  0
    0.5784    6.0100    4.2092 C   0  0  0  0  0  0  0  0  0  0  0  0
    0.9795    6.9371    5.1507 C   0  0  0  0  0  0  0  0  0  0  0  0
    2.3023    6.9529    5.5579 C   0  0  0  0  0  0  0  0  0  0  0  0
    2.7327    7.9541    6.5445 N   0  0  0  0  0  0  0  0  0  0  0  0
    1.7634    8.9190    7.0833 C   0  0  0  0  0  0  0  0  0  0  0  0
    0.7043    8.4278    7.7359 N   0  0  0  0  0  0  0  0  0  0  0  0
   -0.1775    9.3130    8.2602 C   0  0  0  0  0  0  0  0  0  0  0  0
   -1.3002    8.8436    9.0849 N   0  0  0  0  0  0  0  0  0  0  0  0
   -2.2521    9.8109    9.6497 C   0  0  0  0  0  0  0  0  0  0  0  0
   -2.4052    9.9602   10.9988 C   0  0  0  0  0  0  0  0  0  0  0  0
   -3.2960   10.9165   11.4872 C   0  0  0  0  0  0  0  0  0  0  0  0
   -4.0005   11.7225   10.6150 C   0  0  0  0  0  0  0  0  0  0  0  0
   -3.8291   11.5501    9.2524 C   0  0  0  0  0  0  0  0  0  0  0  0
   -2.9551   10.6038    8.7356 C   0  0  0  0  0  0  0  0  0  0  0  0
   -2.8133   10.4205    7.2524 C   0  0  0  0  0  0  0  0  0  0  0  0
   -1.9156    9.3842    6.7223 N   0  0  0  0  0  0  0  0  0  0  0  0
   -3.4695   11.1613    6.4550 O   0  0  0  0  0  0  0  0  0  0  0  0
   -0.0056   10.6965    8.0046 C   0  0  0  0  0  0  0  0  0  0  0  0
   -0.6964   11.9594    8.2428 C   0  0  0  0  0  0  0  0  0  0  0  0
    0.1135   12.9229    7.7437 C   0  0  0  0  0  0  0  0  0  0  0  0
    1.2684   12.3896    7.1923 N   0  0  0  0  0  0  0  0  0  0  0  0
    1.1821   11.0237    7.3310 C   0  0  0  0  0  0  0  0  0  0  0  0
    2.1149   10.1693    6.8587 N   0  0  0  0  0  0  0  0  0  0  0  0
    3.2345    6.0517    5.0627 C   0  0  0  0  0  0  0  0  0  0  0  0
    4.6688    6.1135    5.5019 C   0  0  0  0  0  0  0  0  0  0  0  0
    2.7898    5.1215    4.1165 C   0  0  0  0  0  0  0  0  0  0  0  0
    1.1117    2.5763    3.2598 C   0  0  0  0  0  0  0  0  0  0  0  0
    0.5495    1.0113   -0.0592 H   0  0  0  0  0  0  0  0  0  0  0  0
    0.5495   -0.5761   -0.7894 H   0  0  0  0  0  0  0  0  0  0  0  0
    1.9762    0.0068    0.0339 H   0  0  0  0  0  0  0  0  0  0  0  0
   -0.6705   -0.5920    1.3359 H   0  0  0  0  0  0  0  0  0  0  0  0
    0.7562   -1.5965    1.4291 H   0  0  0  0  0  0  0  0  0  0  0  0
    0.5495   -0.1855    3.4220 H   0  0  0  0  0  0  0  0  0  0  0  0
    1.9762    0.2361    2.5055 H   0  0  0  0  0  0  0  0  0  0  0  0
    1.3355    1.9802    0.5320 H   0  0  0  0  0  0  0  0  0  0  0  0
   -0.2270    1.2122    0.4284 H   0  0  0  0  0  0  0  0  0  0  0  0
   -0.1637    3.6653   -0.2201 H   0  0  0  0  0  0  0  0  0  0  0  0
   -1.3650    3.2348    0.9917 H   0  0  0  0  0  0  0  0  0  0  0  0
    0.1880    5.3796    1.4958 H   0  0  0  0  0  0  0  0  0  0  0  0
   -0.4367    5.9997    3.8709 H   0  0  0  0  0  0  0  0  0  0  0  0
    0.2776    7.6335    5.5596 H   0  0  0  0  0  0  0  0  0  0  0  0
    3.7039    7.9793    6.8552 H   0  0  0  0  0  0  0  0  0  0  0  0
   -1.4187    7.8467    9.2652 H   0  0  0  0  0  0  0  0  0  0  0  0
   -1.8462    9.3485   11.6758 H   0  0  0  0  0  0  0  0  0  0  0  0
   -3.4340   11.0258   12.5426 H   0  0  0  0  0  0  0  0  0  0  0  0
   -4.6696   12.4700   10.9873 H   0  0  0  0  0  0  0  0  0  0  0  0
   -4.3870   12.1648    8.5772 H   0  0  0  0  0  0  0  0  0  0  0  0
   -1.8193    9.2596    5.7145 H   0  0  0  0  0  0  0  0  0  0  0  0
   -1.3890    8.7896    7.3623 H   0  0  0  0  0  0  0  0  0  0  0  0
   -1.6471   12.0960    8.7145 H   0  0  0  0  0  0  0  0  0  0  0  0
   -0.1105   13.9688    7.7716 H   0  0  0  0  0  0  0  0  0  0  0  0
    2.0348   12.9101    6.7656 H   0  0  0  0  0  0  0  0  0  0  0  0
    4.9493    5.1769    5.9366 H   0  0  0  0  0  0  0  0  0  0  0  0
    5.2924    6.3152    4.6562 H   0  0  0  0  0  0  0  0  0  0  0  0
    4.7868    6.8924    6.2260 H   0  0  0  0  0  0  0  0  0  0  0  0
    3.4868    4.4183    3.7107 H   0  0  0  0  0  0  0  0  0  0  0  0
    0.6995    2.4781    4.2424 H   0  0  0  0  0  0  0  0  0  0  0  0
    2.1585    2.3549    3.2531 H   0  0  0  0  0  0  0  0  0  0  0  0
  1  2  1  0  0  0  0
  1 37  1  0  0  0  0
  1 38  1  0  0  0  0
  1 39  1  0  0  0  0
  2  3  1  0  0  0  0
  2 40  1  0  0  0  0
  2 41  1  0  0  0  0
  3  4  1  0  0  0  0
  3 42  1  0  0  0  0
  3 43  1  0  0  0  0
  4  5  1  0  0  0  0
  4 36  1  0  0  0  0
  5  6  1  0  0  0  0
  5 44  1  0  0  0  0
  5 45  1  0  0  0  0
  6  7  1  0  0  0  0
  6 46  1  0  0  0  0
  6 47  1  0  0  0  0
  7  8  2  0  0  0  0
  7 48  1  0  0  0  0
  8  9  1  0  0  0  0
  8 36  1  0  0  0  0
  9 10  1  0  0  0  0
  9 35  2  0  0  0  0
 10 11  2  0  0  0  0
 10 49  1  0  0  0  0
 11 12  1  0  0  0  0
 11 50  1  0  0  0  0
 12 13  1  0  0  0  0
 12 33  2  0  0  0  0
 13 14  1  0  0  0  0
 13 51  1  0  0  0  0
 14 15  1  0  0  0  0
 14 32  2  0  0  0  0
 15 16  2  0  0  0  0
 16 17  1  0  0  0  0
 16 27  1  0  0  0  0
 17 18  1  0  0  0  0
 17 52  1  0  0  0  0
 18 19  1  0  0  0  0
 18 23  2  0  0  0  0
 19 20  2  0  0  0  0
 19 53  1  0  0  0  0
 20 21  1  0  0  0  0
 20 54  1  0  0  0  0
 21 22  2  0  0  0  0
 21 55  1  0  0  0  0
 22 23  1  0  0  0  0
 22 56  1  0  0  0  0
 23 24  1  0  0  0  0
 24 25  1  0  0  0  0
 24 26  2  0  0  0  0
 25 57  1  0  0  0  0
 25 58  1  0  0  0  0
 27 28  1  0  0  0  0
 27 31  2  0  0  0  0
 28 29  2  0  0  0  0
 28 59  1  0  0  0  0
 29 30  1  0  0  0  0
 29 60  1  0  0  0  0
 30 31  1  0  0  0  0
 30 61  1  0  0  0  0
 31 32  1  0  0  0  0
 33 34  1  0  0  0  0
 33 35  1  0  0  0  0
 34 62  1  0  0  0  0
 34 63  1  0  0  0  0
 34 64  1  0  0  0  0
 35 65  1  0  0  0  0
 36 66  1  0  0  0  0
 36 67  1  0  0  0  0
M  END
