
 OpenBabel03132514253D

 37 39  0  0  0  0  0  0  0  0999 V2000
    0.9207    0.0270    0.0546 C   0  0  0  0  0  0  0  0  0  0  0  0
    0.4140    0.7923   -1.1570 C   0  0  0  0  0  0  0  0  0  0  0  0
    0.6455    2.1677   -1.1885 C   0  0  0  0  0  0  0  0  0  0  0  0
    0.3684    2.8976   -2.3225 C   0  0  0  0  0  0  0  0  0  0  0  0
   -0.1564    2.2658   -3.4442 C   0  0  0  0  0  0  0  0  0  0  0  0
   -0.5349    2.7070   -4.6957 N   0  0  0  0  0  0  0  0  0  0  0  0
   -1.0036    1.6187   -5.4378 C   0  0  0  0  0  0  0  0  0  0  0  0
   -1.4795    1.6906   -6.7737 O   0  0  0  0  0  0  0  0  0  0  0  0
   -0.9406    0.5306   -4.7275 C   0  0  0  0  0  0  0  0  0  0  0  0
   -1.3443   -0.8132   -5.1658 N   0  0  0  0  0  0  0  0  0  0  0  0
   -1.2329   -1.8003   -4.3732 N   0  0  0  0  0  0  0  0  0  0  0  0
   -1.6365   -3.1442   -4.8115 C   0  0  0  0  0  0  0  0  0  0  0  0
   -1.2432   -3.6036   -6.0993 C   0  0  0  0  0  0  0  0  0  0  0  0
   -1.9233   -4.6854   -6.6822 C   0  0  0  0  0  0  0  0  0  0  0  0
   -2.7069   -5.4283   -5.9572 C   0  0  0  0  0  0  0  0  0  0  0  0
   -3.5932   -6.8136   -6.7132 S   0  0  0  0  0  0  0  0  0  0  0  0
   -4.6410   -6.2115   -7.9927 N   0  0  0  0  0  0  0  0  0  0  0  0
   -2.5854   -7.8033   -7.3024 O   0  0  0  0  0  0  0  0  0  0  0  0
   -4.4391   -7.5188   -5.6505 O   0  0  0  0  0  0  0  0  0  0  0  0
   -2.8659   -5.1576   -4.5916 C   0  0  0  0  0  0  0  0  0  0  0  0
   -2.4362   -3.9130   -4.0703 C   0  0  0  0  0  0  0  0  0  0  0  0
   -0.3973    0.8809   -3.4162 C   0  0  0  0  0  0  0  0  0  0  0  0
   -0.1077    0.1481   -2.2612 C   0  0  0  0  0  0  0  0  0  0  0  0
    0.5640   -0.9810    0.0145 H   0  0  0  0  0  0  0  0  0  0  0  0
    0.5640    0.4963    0.9476 H   0  0  0  0  0  0  0  0  0  0  0  0
    1.9907    0.0270    0.0546 H   0  0  0  0  0  0  0  0  0  0  0  0
    1.0414    2.6592   -0.3244 H   0  0  0  0  0  0  0  0  0  0  0  0
    0.5570    3.9507   -2.3406 H   0  0  0  0  0  0  0  0  0  0  0  0
   -0.4815    3.6707   -5.0258 H   0  0  0  0  0  0  0  0  0  0  0  0
   -1.7985    0.8633   -7.2361 H   0  0  0  0  0  0  0  0  0  0  0  0
   -0.4369   -3.1294   -6.6188 H   0  0  0  0  0  0  0  0  0  0  0  0
   -1.7967   -4.8984   -7.7231 H   0  0  0  0  0  0  0  0  0  0  0  0
   -5.1404   -6.9922   -8.4187 H   0  0  0  0  0  0  0  0  0  0  0  0
   -5.3126   -5.5519   -7.6000 H   0  0  0  0  0  0  0  0  0  0  0  0
   -3.3094   -5.8870   -3.9465 H   0  0  0  0  0  0  0  0  0  0  0  0
   -2.7478   -3.5943   -3.0976 H   0  0  0  0  0  0  0  0  0  0  0  0
   -0.2895   -0.9060   -2.2331 H   0  0  0  0  0  0  0  0  0  0  0  0
  1  2  1  0  0  0  0
  1 24  1  0  0  0  0
  1 25  1  0  0  0  0
  1 26  1  0  0  0  0
  2  3  1  0  0  0  0
  2 23  2  0  0  0  0
  3  4  2  0  0  0  0
  3 27  1  0  0  0  0
  4  5  1  0  0  0  0
  4 28  1  0  0  0  0
  5  6  1  0  0  0  0
  5 22  2  0  0  0  0
  6  7  1  0  0  0  0
  6 29  1  0  0  0  0
  7  8  1  0  0  0  0
  7  9  2  0  0  0  0
  8 30  1  0  0  0  0
  9 10  1  0  0  0  0
  9 22  1  0  0  0  0
 10 11  2  0  0  0  0
 11 12  1  0  0  0  0
 12 13  1  0  0  0  0
 12 21  2  0  0  0  0
 13 14  2  0  0  0  0
 13 31  1  0  0  0  0
 14 15  1  0  0  0  0
 14 32  1  0  0  0  0
 15 16  1  0  0  0  0
 15 20  2  0  0  0  0
 16 17  1  0  0  0  0
 16 18  2  0  0  0  0
 16 19  2  0  0  0  0
 17 33  1  0  0  0  0
 17 34  1  0  0  0  0
 20 21  1  0  0  0  0
 20 35  1  0  0  0  0
 21 36  1  0  0  0  0
 22 23  1  0  0  0  0
 23 37  1  0  0  0  0
M  END
