REMARK  Name = 
REMARK  6 active torsions:
REMARK  status: ('A' for Active; 'I' for Inactive)
REMARK    1  A    between atoms: C_1  and  C_2
REMARK    2  A    between atoms: C_7  and  N_8
REMARK    3  A    between atoms: N_9  and  C_10
REMARK    4  A    between atoms: C_13  and  S_14
REMARK    5  A    between atoms: S_14  and  N_15
REMARK    6  A    between atoms: C_20  and  O_21
REMARK                            x       y       z     vdW  Elec       q    Type
REMARK                         _______ _______ _______ _____ _____    ______ ____
ROOT
ATOM      1  N   UNL     1      -1.444  -0.863   5.813  0.00  0.00    +0.000 NA
ATOM      2  N   UNL     1      -1.343  -2.091   6.126  0.00  0.00    +0.000 NA
ENDROOT
BRANCH   1   9
ATOM      3  C   UNL     1       0.993   0.007   0.100  0.00  0.00    +0.000 C 
ATOM      4  C   UNL     1       0.487  -0.881   1.224  0.00  0.00    +0.000 A 
ATOM      5  C   UNL     1       0.782  -2.223   1.137  0.00  0.00    +0.000 A 
ATOM      6  C   UNL     1       0.493  -3.082   2.198  0.00  0.00    +0.000 A 
ATOM      7  C   UNL     1      -0.084  -2.593   3.353  0.00  0.00    +0.000 A 
ATOM      8  C   UNL     1      -0.383  -1.231   3.453  0.00  0.00    +0.000 A 
ATOM      9  C   UNL     1      -0.979  -0.399   4.498  0.00  0.00    +0.000 A 
ATOM     10  C   UNL     1      -1.025   0.824   4.057  0.00  0.00    +0.000 A 
ATOM     11  N   UNL     1      -0.495   0.892   2.765  0.00  0.00    +0.000 N 
ATOM     12  C   UNL     1      -0.095  -0.371   2.379  0.00  0.00    +0.000 A 
ATOM     13  H   UNL     1      -0.417   1.737   2.200  0.00  0.00    +0.000 HD
BRANCH  10  14
ATOM     14  O   UNL     1      -1.539   1.931   4.784  0.00  0.00    +0.000 OA
ATOM     15  H   UNL     1      -1.901   1.798   5.706  0.00  0.00    +0.000 HD
ENDBRANCH  10  14
ENDBRANCH   1   9
BRANCH   2  16
ATOM     16  C   UNL     1      -1.808  -2.554   7.441  0.00  0.00    +0.000 A 
ATOM     17  C   UNL     1      -0.984  -3.329   8.251  0.00  0.00    +0.000 A 
ATOM     18  C   UNL     1      -1.184  -3.216   9.645  0.00  0.00    +0.000 A 
ATOM     19  C   UNL     1      -2.500  -3.031  10.067  0.00  0.00    +0.000 A 
ATOM     20  C   UNL     1      -3.362  -2.515   9.217  0.00  0.00    +0.000 A 
ATOM     21  C   UNL     1      -2.966  -2.158   7.924  0.00  0.00    +0.000 A 
BRANCH  19  22
ATOM     22  S   UNL     1      -3.009  -3.489  11.743  0.00  0.00    +0.000 S 
ATOM     23  O   UNL     1      -2.190  -2.692  12.761  0.00  0.00    +0.000 OA
ATOM     24  O   UNL     1      -4.496  -3.177  11.927  0.00  0.00    +0.000 OA
BRANCH  22  25
ATOM     25  N   UNL     1      -2.736  -5.210  11.989  0.00  0.00    +0.000 NA
ATOM     26  H   UNL     1      -3.023  -5.468  12.934  0.00  0.00    +0.000 HD
ATOM     27  H   UNL     1      -3.281  -5.742  11.311  0.00  0.00    +0.000 HD
ENDBRANCH  22  25
ENDBRANCH  19  22
ENDBRANCH   2  16
TORSDOF 5
