REMARK  Name = 
REMARK  6 active torsions:
REMARK  status: ('A' for Active; 'I' for Inactive)
REMARK    1  A    between atoms: C_4  and  C_5
REMARK    2  A    between atoms: C_5  and  O_6
REMARK    3  A    between atoms: O_6  and  C_7
REMARK    4  A    between atoms: C_10  and  N_11
REMARK    5  A    between atoms: N_11  and  C_12
REMARK    6  A    between atoms: C_19  and  C_20
REMARK                            x       y       z     vdW  Elec       q    Type
REMARK                         _______ _______ _______ _____ _____    ______ ____
ROOT
ATOM      1  N   UNL     1      -2.643  -0.660   6.178  0.00  0.00    +0.000 N 
ATOM      2  H   UNL     1      -1.778  -1.137   6.431  0.00  0.00    +0.000 HD
ENDROOT
BRANCH   1   3
ATOM      3  C   UNL     1      -3.713  -0.500   7.173  0.00  0.00    +0.000 A 
ATOM      4  N   UNL     1      -4.895   0.150   6.827  0.00  0.00    +0.000 NA
ATOM      5  C   UNL     1      -5.909   0.302   7.770  0.00  0.00    +0.000 A 
ATOM      6  N   UNL     1      -5.740  -0.197   9.059  0.00  0.00    +0.000 NA
ATOM      7  C   UNL     1      -4.624  -0.812   9.386  0.00  0.00    +0.000 A 
ATOM      8  C   UNL     1      -3.636  -0.958   8.427  0.00  0.00    +0.000 A 
ATOM      9  C   UNL     1      -2.624  -1.881   8.781  0.00  0.00    +0.000 A 
ATOM     10  C   UNL     1      -2.396  -2.307  10.010  0.00  0.00    +0.000 A 
ATOM     11  C   UNL     1      -3.381  -2.072  10.928  0.00  0.00    +0.000 A 
ATOM     12  C   UNL     1      -4.465  -1.288  10.616  0.00  0.00    +0.000 A 
BRANCH  10  13
ATOM     13  C   UNL     1      -1.106  -3.018  10.385  0.00  0.00    +0.000 A 
ATOM     14  C   UNL     1      -1.043  -4.264  10.876  0.00  0.00    +0.000 A 
ATOM     15  C   UNL     1       0.336  -4.514  11.080  0.00  0.00    +0.000 A 
ATOM     16  C   UNL     1       1.005  -3.399  10.694  0.00  0.00    +0.000 A 
ATOM     17  O   UNL     1       0.118  -2.452  10.243  0.00  0.00    +0.000 OA
ENDBRANCH  10  13
ENDBRANCH   1   3
BRANCH   1  21
ATOM     18  C   UNL     1      -3.248   0.644   2.209  0.00  0.00    +0.000 A 
ATOM     19  C   UNL     1      -4.296   0.745   3.109  0.00  0.00    +0.000 A 
ATOM     20  C   UNL     1      -3.926   0.489   4.451  0.00  0.00    +0.000 A 
ATOM     21  C   UNL     1      -2.821  -0.134   4.817  0.00  0.00    +0.000 A 
ATOM     22  C   UNL     1      -1.850  -0.262   3.862  0.00  0.00    +0.000 A 
ATOM     23  C   UNL     1      -2.093   0.089   2.556  0.00  0.00    +0.000 A 
BRANCH  18  24
ATOM     24  O   UNL     1      -3.354   1.197   0.905  0.00  0.00    +0.000 OA
BRANCH  24  25
ATOM     25  C   UNL     1      -2.862   0.474  -0.214  0.00  0.00    +0.000 C 
BRANCH  25  29
ATOM     26  C   UNL     1       1.344  -0.225   0.036  0.00  0.00    +0.000 A 
ATOM     27  C   UNL     1       0.892   1.080  -0.070  0.00  0.00    +0.000 A 
ATOM     28  C   UNL     1      -0.509   1.215   0.075  0.00  0.00    +0.000 A 
ATOM     29  C   UNL     1      -1.373   0.223  -0.041  0.00  0.00    +0.000 A 
ATOM     30  C   UNL     1      -0.856  -1.042   0.003  0.00  0.00    +0.000 A 
ATOM     31  C   UNL     1       0.502  -1.251  -0.004  0.00  0.00    +0.000 A 
ENDBRANCH  25  29
ENDBRANCH  24  25
ENDBRANCH  18  24
ENDBRANCH   1  21
TORSDOF 6
