
 OpenBabel03132514253D

 43 45  0  0  0  0  0  0  0  0999 V2000
    1.0038    0.0473    0.0880 C   0  0  0  0  0  0  0  0  0  0  0  0
    0.4972    0.8955   -1.0671 C   0  0  0  0  0  0  0  0  0  0  0  0
    1.0038    0.3192   -2.3792 C   0  0  0  0  0  0  0  0  0  0  0  0
   -1.0228    0.8955   -1.0671 C   0  0  0  0  0  0  0  0  0  0  0  0
   -1.7149   -0.3159   -1.0665 C   0  0  0  0  0  0  0  0  0  0  0  0
   -3.0955   -0.3295   -1.0545 C   0  0  0  0  0  0  0  0  0  0  0  0
   -3.7987    0.8789   -1.0499 C   0  0  0  0  0  0  0  0  0  0  0  0
   -5.2195    1.2231   -1.0387 C   0  0  0  0  0  0  0  0  0  0  0  0
   -6.3402    0.2718   -1.0293 N   0  0  0  0  0  0  0  0  0  0  0  0
   -6.1123   -0.9785   -1.0305 N   0  0  0  0  0  0  0  0  0  0  0  0
   -7.2329   -1.9298   -1.0210 C   0  0  0  0  0  0  0  0  0  0  0  0
   -8.3550   -1.7442   -1.8758 C   0  0  0  0  0  0  0  0  0  0  0  0
   -9.5278   -2.4810   -1.6429 C   0  0  0  0  0  0  0  0  0  0  0  0
   -9.5042   -3.5063   -0.8430 C   0  0  0  0  0  0  0  0  0  0  0  0
  -11.0197   -4.4463   -0.5334 S   0  0  0  0  0  0  0  0  0  0  0  0
  -12.2348   -3.3852    0.1702 N   0  0  0  0  0  0  0  0  0  0  0  0
  -11.5439   -5.0179   -1.8528 O   0  0  0  0  0  0  0  0  0  0  0  0
  -10.7202   -5.5922    0.4358 O   0  0  0  0  0  0  0  0  0  0  0  0
   -8.3070   -3.8841   -0.2206 C   0  0  0  0  0  0  0  0  0  0  0  0
   -7.2119   -2.9863   -0.2066 C   0  0  0  0  0  0  0  0  0  0  0  0
   -5.3166    2.5204   -1.0386 C   0  0  0  0  0  0  0  0  0  0  0  0
   -6.5384    3.2439   -1.0291 O   0  0  0  0  0  0  0  0  0  0  0  0
   -4.0440    3.0994   -1.0491 N   0  0  0  0  0  0  0  0  0  0  0  0
   -3.0960    2.0967   -1.0565 C   0  0  0  0  0  0  0  0  0  0  0  0
   -1.7058    2.0909   -1.0677 C   0  0  0  0  0  0  0  0  0  0  0  0
    0.6472   -0.9554   -0.0225 H   0  0  0  0  0  0  0  0  0  0  0  0
    0.6472    0.4530    1.0117 H   0  0  0  0  0  0  0  0  0  0  0  0
    2.0738    0.0473    0.0880 H   0  0  0  0  0  0  0  0  0  0  0  0
    0.8538    1.8982   -0.9566 H   0  0  0  0  0  0  0  0  0  0  0  0
    0.6472   -0.6836   -2.4897 H   0  0  0  0  0  0  0  0  0  0  0  0
    0.6472    0.9162   -3.1923 H   0  0  0  0  0  0  0  0  0  0  0  0
    2.0738    0.3192   -2.3792 H   0  0  0  0  0  0  0  0  0  0  0  0
   -1.1732   -1.2386   -1.0755 H   0  0  0  0  0  0  0  0  0  0  0  0
   -3.6243   -1.2597   -1.0487 H   0  0  0  0  0  0  0  0  0  0  0  0
   -8.3059   -1.0498   -2.6884 H   0  0  0  0  0  0  0  0  0  0  0  0
  -10.4411   -2.1988   -2.1237 H   0  0  0  0  0  0  0  0  0  0  0  0
  -13.0888   -3.9149    0.3447 H   0  0  0  0  0  0  0  0  0  0  0  0
  -11.8854   -3.0042    1.0495 H   0  0  0  0  0  0  0  0  0  0  0  0
   -8.2207   -4.8454    0.2413 H   0  0  0  0  0  0  0  0  0  0  0  0
   -6.3811   -3.1525    0.4469 H   0  0  0  0  0  0  0  0  0  0  0  0
   -7.4098    2.7535   -1.0219 H   0  0  0  0  0  0  0  0  0  0  0  0
   -3.8481    4.1004   -1.0510 H   0  0  0  0  0  0  0  0  0  0  0  0
   -1.1668    3.0152   -1.0766 H   0  0  0  0  0  0  0  0  0  0  0  0
  1  2  1  0  0  0  0
  1 26  1  0  0  0  0
  1 27  1  0  0  0  0
  1 28  1  0  0  0  0
  2  3  1  0  0  0  0
  2  4  1  0  0  0  0
  2 29  1  0  0  0  0
  3 30  1  0  0  0  0
  3 31  1  0  0  0  0
  3 32  1  0  0  0  0
  4  5  1  0  0  0  0
  4 25  2  0  0  0  0
  5  6  2  0  0  0  0
  5 33  1  0  0  0  0
  6  7  1  0  0  0  0
  6 34  1  0  0  0  0
  7  8  1  0  0  0  0
  7 24  2  0  0  0  0
  8  9  1  0  0  0  0
  8 21  2  0  0  0  0
  9 10  2  0  0  0  0
 10 11  1  0  0  0  0
 11 12  1  0  0  0  0
 11 20  2  0  0  0  0
 12 13  2  0  0  0  0
 12 35  1  0  0  0  0
 13 14  1  0  0  0  0
 13 36  1  0  0  0  0
 14 15  1  0  0  0  0
 14 19  2  0  0  0  0
 15 16  1  0  0  0  0
 15 17  2  0  0  0  0
 15 18  2  0  0  0  0
 16 37  1  0  0  0  0
 16 38  1  0  0  0  0
 19 20  1  0  0  0  0
 19 39  1  0  0  0  0
 20 40  1  0  0  0  0
 21 22  1  0  0  0  0
 21 23  1  0  0  0  0
 22 41  1  0  0  0  0
 23 24  1  0  0  0  0
 23 42  1  0  0  0  0
 24 25  1  0  0  0  0
 25 43  1  0  0  0  0
M  END
