REMARK  Name = 
REMARK  2 active torsions:
REMARK  status: ('A' for Active; 'I' for Inactive)
REMARK    1  A    between atoms: C_12  and  C_13
REMARK    2  A    between atoms: C_17  and  O_18
REMARK                            x       y       z     vdW  Elec       q    Type
REMARK                         _______ _______ _______ _____ _____    ______ ____
ROOT
ATOM      1  O   UNL     1       0.958  -0.040  -0.081  0.00  0.00    +0.000 OA
ATOM      2  C   UNL     1       2.229  -0.040  -0.081  0.00  0.00    +0.000 C 
ATOM      3  N   UNL     1       3.402   1.371  -0.082  0.00  0.00    +0.000 N 
ATOM      4  C   UNL     1       4.911   0.427  -0.082  0.00  0.00    +0.000 A 
ATOM      5  C   UNL     1       6.147   0.792  -0.083  0.00  0.00    +0.000 A 
ATOM      6  C   UNL     1       7.174  -0.163  -0.076  0.00  0.00    +0.000 A 
ATOM      7  C   UNL     1       6.827  -1.524  -0.082  0.00  0.00    +0.000 A 
ATOM      8  I   UNL     1       8.370  -3.021  -0.092  0.00  0.00    +0.000 I 
ATOM      9  C   UNL     1       5.546  -1.891  -0.082  0.00  0.00    +0.000 A 
ATOM     10  C   UNL     1       4.507  -0.915  -0.081  0.00  0.00    +0.000 A 
ATOM     11  C   UNL     1       3.195  -1.204  -0.081  0.00  0.00    +0.000 C 
ATOM     12  C   UNL     1       2.754  -2.490  -0.080  0.00  0.00    +0.000 C 
ATOM     13  H   UNL     1       3.240   2.378  -0.082  0.00  0.00    +0.000 HD
ENDROOT
BRANCH  12  14
ATOM     14  C   UNL     1       1.262  -2.782  -0.080  0.00  0.00    +0.000 A 
ATOM     15  C   UNL     1       0.691  -3.500   0.952  0.00  0.00    +0.000 A 
ATOM     16  C   UNL     1      -0.607  -3.758   0.959  0.00  0.00    +0.000 A 
ATOM     17 BR   UNL     1      -1.369  -4.789   2.442  0.00  0.00    +0.000 Br
ATOM     18  C   UNL     1      -1.403  -3.337  -0.010  0.00  0.00    +0.000 A 
ATOM     19  C   UNL     1      -0.899  -2.613  -1.074  0.00  0.00    +0.000 A 
ATOM     20 BR   UNL     1      -2.087  -1.994  -2.504  0.00  0.00    +0.000 Br
ATOM     21  C   UNL     1       0.458  -2.330  -1.116  0.00  0.00    +0.000 A 
BRANCH  18  22
ATOM     22  O   UNL     1      -2.791  -3.632   0.043  0.00  0.00    +0.000 OA
ATOM     23  H   UNL     1      -3.398  -3.317  -0.686  0.00  0.00    +0.000 HD
ENDBRANCH  18  22
ENDBRANCH  12  14
TORSDOF 2
