
 OpenBabel03132514253D

 29 31  0  0  0  0  0  0  0  0999 V2000
    0.9579   -0.0404   -0.0812 O   0  0  0  0  0  0  0  0  0  0  0  0
    2.2288   -0.0404   -0.0812 C   0  0  0  0  0  0  0  0  0  0  0  0
    3.4016    1.3708   -0.0817 N   0  0  0  0  0  0  0  0  0  0  0  0
    4.9113    0.4267   -0.0820 C   0  0  0  0  0  0  0  0  0  0  0  0
    6.1469    0.7917   -0.0825 C   0  0  0  0  0  0  0  0  0  0  0  0
    7.1738   -0.1628   -0.0760 C   0  0  0  0  0  0  0  0  0  0  0  0
    6.8275   -1.5239   -0.0822 C   0  0  0  0  0  0  0  0  0  0  0  0
    8.3701   -3.0214   -0.0923 I   0  0  0  0  0  0  0  0  0  0  0  0
    5.5457   -1.8908   -0.0817 C   0  0  0  0  0  0  0  0  0  0  0  0
    4.5069   -0.9153   -0.0812 C   0  0  0  0  0  0  0  0  0  0  0  0
    3.1954   -1.2035   -0.0808 C   0  0  0  0  0  0  0  0  0  0  0  0
    2.7538   -2.4902   -0.0800 C   0  0  0  0  0  0  0  0  0  0  0  0
    1.2621   -2.7818   -0.0796 C   0  0  0  0  0  0  0  0  0  0  0  0
    0.6909   -3.4997    0.9521 C   0  0  0  0  0  0  0  0  0  0  0  0
   -0.6074   -3.7577    0.9591 C   0  0  0  0  0  0  0  0  0  0  0  0
   -1.3695   -4.7887    2.4416 Br  0  0  0  0  0  0  0  0  0  0  0  0
   -1.4029   -3.3367   -0.0100 C   0  0  0  0  0  0  0  0  0  0  0  0
   -2.7908   -3.6319    0.0434 O   0  0  0  0  0  0  0  0  0  0  0  0
   -0.8993   -2.6130   -1.0736 C   0  0  0  0  0  0  0  0  0  0  0  0
   -2.0875   -1.9944   -2.5043 Br  0  0  0  0  0  0  0  0  0  0  0  0
    0.4581   -2.3298   -1.1160 C   0  0  0  0  0  0  0  0  0  0  0  0
    3.2398    2.3779   -0.0818 H   0  0  0  0  0  0  0  0  0  0  0  0
    6.3917    1.8333   -0.0878 H   0  0  0  0  0  0  0  0  0  0  0  0
    8.2002    0.1395   -0.0666 H   0  0  0  0  0  0  0  0  0  0  0  0
    5.2939   -2.9308   -0.0818 H   0  0  0  0  0  0  0  0  0  0  0  0
    3.4567   -3.2970   -0.0797 H   0  0  0  0  0  0  0  0  0  0  0  0
    1.3045   -3.8514    1.7550 H   0  0  0  0  0  0  0  0  0  0  0  0
   -3.3976   -3.3165   -0.6862 H   0  0  0  0  0  0  0  0  0  0  0  0
    0.8757   -1.7750   -1.9301 H   0  0  0  0  0  0  0  0  0  0  0  0
  1  2  2  0  0  0  0
  2  3  1  0  0  0  0
  2 11  1  0  0  0  0
  3  4  1  0  0  0  0
  3 22  1  0  0  0  0
  4  5  1  0  0  0  0
  4 10  2  0  0  0  0
  5  6  2  0  0  0  0
  5 23  1  0  0  0  0
  6  7  1  0  0  0  0
  6 24  1  0  0  0  0
  7  8  1  0  0  0  0
  7  9  2  0  0  0  0
  9 10  1  0  0  0  0
  9 25  1  0  0  0  0
 10 11  1  0  0  0  0
 11 12  2  0  0  0  0
 12 13  1  0  0  0  0
 12 26  1  0  0  0  0
 13 14  1  0  0  0  0
 13 21  2  0  0  0  0
 14 15  2  0  0  0  0
 14 27  1  0  0  0  0
 15 16  1  0  0  0  0
 15 17  1  0  0  0  0
 17 18  1  0  0  0  0
 17 19  2  0  0  0  0
 18 28  1  0  0  0  0
 19 20  1  0  0  0  0
 19 21  1  0  0  0  0
 21 29  1  0  0  0  0
M  END
