REMARK  Name = 
REMARK  4 active torsions:
REMARK  status: ('A' for Active; 'I' for Inactive)
REMARK    1  A    between atoms: N_1  and  S_2
REMARK    2  A    between atoms: S_2  and  C_5
REMARK    3  A    between atoms: C_8  and  N_9
REMARK    4  A    between atoms: N_10  and  C_11
REMARK                            x       y       z     vdW  Elec       q    Type
REMARK                         _______ _______ _______ _____ _____    ______ ____
ROOT
ATOM      1  C   UNL     1       2.789   3.753   8.093  0.00  0.00    +0.000 A 
ATOM      2  C   UNL     1       2.954   5.088   8.609  0.00  0.00    +0.000 A 
ATOM      3  O   UNL     1       2.696   6.091   7.872  0.00  0.00    +0.000 OA
ATOM      4  N   UNL     1       3.397   5.279   9.916  0.00  0.00    +0.000 N 
ATOM      5  C   UNL     1       3.696   4.119  10.768  0.00  0.00    +0.000 A 
ATOM      6  C   UNL     1       3.379   4.155  12.116  0.00  0.00    +0.000 A 
ATOM      7  C   UNL     1       4.103   3.225  12.899  0.00  0.00    +0.000 A 
ATOM      8  C   UNL     1       4.743   2.176  12.416  0.00  0.00    +0.000 A 
ATOM      9  N   UNL     1       5.169   1.134  13.236  0.00  0.00    +0.000 N 
ATOM     10  C   UNL     1       4.923   1.181  14.606  0.00  0.00    +0.000 A 
ATOM     11  C   UNL     1       5.363   0.104  15.455  0.00  0.00    +0.000 A 
ATOM     12  C   UNL     1       5.805   1.148  10.492  0.00  0.00    +0.000 A 
ATOM     13  C   UNL     1       4.966   2.168  11.067  0.00  0.00    +0.000 A 
ATOM     14  C   UNL     1       4.400   3.119  10.252  0.00  0.00    +0.000 A 
ATOM     15  H   UNL     1       3.514   6.224  10.281  0.00  0.00    +0.000 HD
ATOM     16  H   UNL     1       5.662   0.337  12.834  0.00  0.00    +0.000 HD
ENDROOT
BRANCH   1  18
ATOM     17  N   UNL     1       2.175   2.374   6.259  0.00  0.00    +0.000 NA
ATOM     18  N   UNL     1       2.321   3.551   6.714  0.00  0.00    +0.000 NA
BRANCH  17  22
ATOM     19  C   UNL     1       1.060   1.794   2.229  0.00  0.00    +0.000 A 
ATOM     20  C   UNL     1       1.401   0.689   2.990  0.00  0.00    +0.000 A 
ATOM     21  C   UNL     1       1.544   0.965   4.370  0.00  0.00    +0.000 A 
ATOM     22  C   UNL     1       1.708   2.172   4.880  0.00  0.00    +0.000 A 
ATOM     23  C   UNL     1       1.419   3.224   4.056  0.00  0.00    +0.000 A 
ATOM     24  C   UNL     1       1.141   3.024   2.725  0.00  0.00    +0.000 A 
BRANCH  19  25
ATOM     25  S   UNL     1       0.456   1.561   0.539  0.00  0.00    +0.000 S 
ATOM     26  O   UNL     1       0.966   2.701  -0.347  0.00  0.00    +0.000 OA
ATOM     27  O   UNL     1      -1.074   1.561   0.539  0.00  0.00    +0.000 OA
BRANCH  25  28
ATOM     28  N   UNL     1       1.043   0.025  -0.087  0.00  0.00    +0.000 NA
ATOM     29  H   UNL     1       0.703  -0.107  -1.040  0.00  0.00    +0.000 HD
ATOM     30  H   UNL     1       2.063   0.025  -0.087  0.00  0.00    +0.000 HD
ENDBRANCH  25  28
ENDBRANCH  19  25
ENDBRANCH  17  22
ENDBRANCH   1  18
TORSDOF 4
