
 OpenBabel03132514253D

 39 42  0  0  0  0  0  0  0  0999 V2000
    1.0428    0.0245   -0.0870 N   0  0  0  0  0  0  0  0  0  0  0  0
    0.4562    1.5614    0.5386 S   0  0  0  0  0  0  0  0  0  0  0  0
    0.9663    2.7007   -0.3467 O   0  0  0  0  0  0  0  0  0  0  0  0
   -1.0743    1.5614    0.5386 O   0  0  0  0  0  0  0  0  0  0  0  0
    1.0595    1.7944    2.2291 C   0  0  0  0  0  0  0  0  0  0  0  0
    1.4008    0.6885    2.9901 C   0  0  0  0  0  0  0  0  0  0  0  0
    1.5440    0.9645    4.3705 C   0  0  0  0  0  0  0  0  0  0  0  0
    1.7079    2.1719    4.8798 C   0  0  0  0  0  0  0  0  0  0  0  0
    2.1755    2.3740    6.2587 N   0  0  0  0  0  0  0  0  0  0  0  0
    2.3213    3.5515    6.7141 N   0  0  0  0  0  0  0  0  0  0  0  0
    2.7890    3.7535    8.0930 C   0  0  0  0  0  0  0  0  0  0  0  0
    2.9542    5.0879    8.6092 C   0  0  0  0  0  0  0  0  0  0  0  0
    2.6956    6.0907    7.8725 O   0  0  0  0  0  0  0  0  0  0  0  0
    3.3973    5.2793    9.9157 N   0  0  0  0  0  0  0  0  0  0  0  0
    3.6963    4.1194   10.7678 C   0  0  0  0  0  0  0  0  0  0  0  0
    3.3794    4.1549   12.1157 C   0  0  0  0  0  0  0  0  0  0  0  0
    4.1029    3.2252   12.8994 C   0  0  0  0  0  0  0  0  0  0  0  0
    4.7433    2.1762   12.4161 C   0  0  0  0  0  0  0  0  0  0  0  0
    5.1691    1.1343   13.2364 N   0  0  0  0  0  0  0  0  0  0  0  0
    4.9225    1.1812   14.6064 C   0  0  0  0  0  0  0  0  0  0  0  0
    5.3628    0.1038   15.4546 C   0  0  0  0  0  0  0  0  0  0  0  0
    5.8049    1.1484   10.4922 C   0  0  0  0  0  0  0  0  0  0  0  0
    4.9657    2.1680   11.0670 C   0  0  0  0  0  0  0  0  0  0  0  0
    4.4001    3.1185   10.2518 C   0  0  0  0  0  0  0  0  0  0  0  0
    1.4192    3.2239    4.0555 C   0  0  0  0  0  0  0  0  0  0  0  0
    1.1412    3.0236    2.7250 C   0  0  0  0  0  0  0  0  0  0  0  0
    0.7029   -0.1069   -1.0396 H   0  0  0  0  0  0  0  0  0  0  0  0
    2.0628    0.0245   -0.0870 H   0  0  0  0  0  0  0  0  0  0  0  0
    1.5432   -0.2860    2.5721 H   0  0  0  0  0  0  0  0  0  0  0  0
    1.5177    0.1375    5.0488 H   0  0  0  0  0  0  0  0  0  0  0  0
    3.5143    6.2243   10.2812 H   0  0  0  0  0  0  0  0  0  0  0  0
    2.6534    4.8247   12.5270 H   0  0  0  0  0  0  0  0  0  0  0  0
    4.1334    3.3831   13.9573 H   0  0  0  0  0  0  0  0  0  0  0  0
    5.6615    0.3369   12.8338 H   0  0  0  0  0  0  0  0  0  0  0  0
    4.4059    2.0177   15.0287 H   0  0  0  0  0  0  0  0  0  0  0  0
    5.8794   -0.7327   15.0324 H   0  0  0  0  0  0  0  0  0  0  0  0
    5.9841    1.1348    9.4374 H   0  0  0  0  0  0  0  0  0  0  0  0
    1.4096    4.2176    4.4524 H   0  0  0  0  0  0  0  0  0  0  0  0
    0.9891    3.8656    2.0825 H   0  0  0  0  0  0  0  0  0  0  0  0
  1  2  1  0  0  0  0
  1 27  1  0  0  0  0
  1 28  1  0  0  0  0
  2  3  2  0  0  0  0
  2  4  2  0  0  0  0
  2  5  1  0  0  0  0
  5  6  1  0  0  0  0
  5 26  2  0  0  0  0
  6  7  2  0  0  0  0
  6 29  1  0  0  0  0
  7  8  1  0  0  0  0
  7 30  1  0  0  0  0
  8  9  1  0  0  0  0
  8 25  2  0  0  0  0
  9 10  2  0  0  0  0
 10 11  1  0  0  0  0
 11 12  1  0  0  0  0
 11 24  2  0  0  0  0
 12 13  2  0  0  0  0
 12 14  1  0  0  0  0
 14 15  1  0  0  0  0
 14 31  1  0  0  0  0
 15 16  2  0  0  0  0
 15 24  1  0  0  0  0
 16 17  1  0  0  0  0
 16 32  1  0  0  0  0
 17 18  2  0  0  0  0
 17 33  1  0  0  0  0
 18 19  1  0  0  0  0
 18 23  1  0  0  0  0
 19 20  1  0  0  0  0
 19 34  1  0  0  0  0
 20 21  2  0  0  0  0
 20 35  1  0  0  0  0
 21 22  1  0  0  0  0
 21 36  1  0  0  0  0
 22 23  2  0  0  0  0
 22 37  1  0  0  0  0
 23 24  1  0  0  0  0
 25 26  1  0  0  0  0
 25 38  1  0  0  0  0
 26 39  1  0  0  0  0
M  END
