REMARK  Name = 
REMARK  8 active torsions:
REMARK  status: ('A' for Active; 'I' for Inactive)
REMARK    1  A    between atoms: C_1  and  C_2
REMARK    2  A    between atoms: C_2  and  C_3
REMARK    3  A    between atoms: C_2  and  C_4
REMARK    4  A    between atoms: C_8  and  N_9
REMARK    5  A    between atoms: N_10  and  C_11
REMARK    6  A    between atoms: C_14  and  S_15
REMARK    7  A    between atoms: S_15  and  N_16
REMARK    8  A    between atoms: C_21  and  O_22
REMARK                            x       y       z     vdW  Elec       q    Type
REMARK                         _______ _______ _______ _____ _____    ______ ____
ROOT
ATOM      1  C   UNL     1      -1.023   0.895  -1.067  0.00  0.00    +0.000 A 
ATOM      2  C   UNL     1      -1.715  -0.316  -1.067  0.00  0.00    +0.000 A 
ATOM      3  C   UNL     1      -3.095  -0.330  -1.054  0.00  0.00    +0.000 A 
ATOM      4  C   UNL     1      -3.799   0.879  -1.050  0.00  0.00    +0.000 A 
ATOM      5  C   UNL     1      -5.220   1.223  -1.039  0.00  0.00    +0.000 A 
ATOM      6  C   UNL     1      -5.317   2.520  -1.039  0.00  0.00    +0.000 A 
ATOM      7  N   UNL     1      -4.044   3.099  -1.049  0.00  0.00    +0.000 N 
ATOM      8  C   UNL     1      -3.096   2.097  -1.056  0.00  0.00    +0.000 A 
ATOM      9  C   UNL     1      -1.706   2.091  -1.068  0.00  0.00    +0.000 A 
ATOM     10  H   UNL     1      -3.848   4.100  -1.051  0.00  0.00    +0.000 HD
ENDROOT
BRANCH   1  12
ATOM     11  C   UNL     1       1.004   0.047   0.088  0.00  0.00    +0.000 C 
ATOM     12  C   UNL     1       0.497   0.895  -1.067  0.00  0.00    +0.000 C 
ATOM     13  C   UNL     1       1.004   0.319  -2.379  0.00  0.00    +0.000 C 
ENDBRANCH   1  12
BRANCH   5  14
ATOM     14  N   UNL     1      -6.340   0.272  -1.029  0.00  0.00    +0.000 NA
ATOM     15  N   UNL     1      -6.112  -0.979  -1.030  0.00  0.00    +0.000 NA
BRANCH  15  16
ATOM     16  C   UNL     1      -7.233  -1.930  -1.021  0.00  0.00    +0.000 A 
ATOM     17  C   UNL     1      -8.355  -1.744  -1.876  0.00  0.00    +0.000 A 
ATOM     18  C   UNL     1      -9.528  -2.481  -1.643  0.00  0.00    +0.000 A 
ATOM     19  C   UNL     1      -9.504  -3.506  -0.843  0.00  0.00    +0.000 A 
ATOM     20  C   UNL     1      -8.307  -3.884  -0.221  0.00  0.00    +0.000 A 
ATOM     21  C   UNL     1      -7.212  -2.986  -0.207  0.00  0.00    +0.000 A 
BRANCH  19  22
ATOM     22  S   UNL     1     -11.020  -4.446  -0.533  0.00  0.00    +0.000 S 
ATOM     23  O   UNL     1     -11.544  -5.018  -1.853  0.00  0.00    +0.000 OA
ATOM     24  O   UNL     1     -10.720  -5.592   0.436  0.00  0.00    +0.000 OA
BRANCH  22  25
ATOM     25  N   UNL     1     -12.235  -3.385   0.170  0.00  0.00    +0.000 NA
ATOM     26  H   UNL     1     -13.089  -3.915   0.345  0.00  0.00    +0.000 HD
ATOM     27  H   UNL     1     -11.885  -3.004   1.050  0.00  0.00    +0.000 HD
ENDBRANCH  22  25
ENDBRANCH  19  22
ENDBRANCH  15  16
ENDBRANCH   5  14
BRANCH   6  28
ATOM     28  O   UNL     1      -6.538   3.244  -1.029  0.00  0.00    +0.000 OA
ATOM     29  H   UNL     1      -7.410   2.753  -1.022  0.00  0.00    +0.000 HD
ENDBRANCH   6  28
TORSDOF 6
