REMARK  Name = 
REMARK  8 active torsions:
REMARK  status: ('A' for Active; 'I' for Inactive)
REMARK    1  A    between atoms: C_1  and  C_2
REMARK    2  A    between atoms: C_2  and  C_3
REMARK    3  A    between atoms: C_4  and  C_5
REMARK    4  A    between atoms: C_11  and  O_12
REMARK    5  A    between atoms: C_13  and  N_14
REMARK    6  A    between atoms: N_15  and  C_16
REMARK    7  A    between atoms: C_19  and  S_20
REMARK    8  A    between atoms: S_20  and  N_21
REMARK                            x       y       z     vdW  Elec       q    Type
REMARK                         _______ _______ _______ _____ _____    ______ ____
ROOT
ATOM      1  C   UNL     1       1.703  -2.695  -0.058  0.00  0.00    +0.000 A 
ATOM      2  C   UNL     1       2.829  -1.985  -0.424  0.00  0.00    +0.000 A 
ATOM      3  C   UNL     1       3.692  -2.488  -1.398  0.00  0.00    +0.000 A 
ATOM      4  C   UNL     1       3.440  -3.702  -1.996  0.00  0.00    +0.000 A 
ATOM      5  C   UNL     1       2.311  -4.431  -1.639  0.00  0.00    +0.000 A 
ATOM      6  N   UNL     1       1.792  -5.643  -2.047  0.00  0.00    +0.000 N 
ATOM      7  C   UNL     1       0.612  -5.892  -1.339  0.00  0.00    +0.000 A 
ATOM      8  C   UNL     1       0.366  -4.913  -0.518  0.00  0.00    +0.000 A 
ATOM      9  C   UNL     1       1.435  -3.926  -0.663  0.00  0.00    +0.000 A 
ATOM     10  H   UNL     1       2.202  -6.257  -2.751  0.00  0.00    +0.000 HD
ENDROOT
BRANCH   1  14
ATOM     11  C   UNL     1       1.007   0.100   0.002  0.00  0.00    +0.000 C 
ATOM     12  C   UNL     1       0.501  -0.833   1.090  0.00  0.00    +0.000 C 
ATOM     13  C   UNL     1      -0.373  -0.291   2.209  0.00  0.00    +0.000 C 
ATOM     14  C   UNL     1       0.829  -2.153   1.062  0.00  0.00    +0.000 C 
ENDBRANCH   1  14
BRANCH   7  15
ATOM     15  O   UNL     1      -0.200  -7.047  -1.494  0.00  0.00    +0.000 OA
ATOM     16  H   UNL     1      -1.031  -7.150  -0.947  0.00  0.00    +0.000 HD
ENDBRANCH   7  15
BRANCH   8  17
ATOM     17  N   UNL     1      -0.783  -4.817   0.393  0.00  0.00    +0.000 NA
ATOM     18  N   UNL     1      -0.911  -3.804   1.150  0.00  0.00    +0.000 NA
BRANCH  18  19
ATOM     19  C   UNL     1      -2.061  -3.708   2.061  0.00  0.00    +0.000 A 
ATOM     20  C   UNL     1      -2.461  -4.827   2.842  0.00  0.00    +0.000 A 
ATOM     21  C   UNL     1      -3.716  -4.815   3.472  0.00  0.00    +0.000 A 
ATOM     22  C   UNL     1      -4.383  -3.702   3.572  0.00  0.00    +0.000 A 
ATOM     23  C   UNL     1      -3.845  -2.513   3.062  0.00  0.00    +0.000 A 
ATOM     24  C   UNL     1      -2.745  -2.568   2.172  0.00  0.00    +0.000 A 
BRANCH  22  25
ATOM     25  S   UNL     1      -6.006  -3.690   4.372  0.00  0.00    +0.000 S 
ATOM     26  O   UNL     1      -5.866  -4.170   5.819  0.00  0.00    +0.000 OA
ATOM     27  O   UNL     1      -6.571  -2.268   4.358  0.00  0.00    +0.000 OA
BRANCH  25  28
ATOM     28  N   UNL     1      -7.097  -4.763   3.502  0.00  0.00    +0.000 NA
ATOM     29  H   UNL     1      -8.012  -4.756   3.953  0.00  0.00    +0.000 HD
ATOM     30  H   UNL     1      -7.191  -4.444   2.538  0.00  0.00    +0.000 HD
ENDBRANCH  25  28
ENDBRANCH  22  25
ENDBRANCH  18  19
ENDBRANCH   8  17
TORSDOF 6
