REMARK  Name = 
REMARK  7 active torsions:
REMARK  status: ('A' for Active; 'I' for Inactive)
REMARK    1  A    between atoms: C_1  and  O_2
REMARK    2  A    between atoms: O_2  and  C_3
REMARK    3  A    between atoms: N_10  and  C_11
REMARK    4  A    between atoms: C_14  and  C_15
REMARK    5  A    between atoms: C_16  and  O_17
REMARK    6  A    between atoms: C_21  and  O_22
REMARK    7  A    between atoms: O_22  and  C_23
REMARK                            x       y       z     vdW  Elec       q    Type
REMARK                         _______ _______ _______ _____ _____    ______ ____
ROOT
ATOM      1  C   UNL     1       0.912   1.420  -2.114  0.00  0.00    +0.000 A 
ATOM      2  C   UNL     1      -0.065   1.948  -2.911  0.00  0.00    +0.000 A 
ATOM      3  C   UNL     1       0.221   3.047  -3.752  0.00  0.00    +0.000 A 
ATOM      4  N   UNL     1      -0.773   3.590  -4.525  0.00  0.00    +0.000 NA
ATOM      5  C   UNL     1      -0.438   4.601  -5.279  0.00  0.00    +0.000 A 
ATOM      6  N   UNL     1       0.803   5.167  -5.390  0.00  0.00    +0.000 NA
ATOM      7  C   UNL     1       1.767   4.649  -4.667  0.00  0.00    +0.000 A 
ATOM      8  N   UNL     1       3.121   5.210  -4.774  0.00  0.00    +0.000 N 
ATOM      9  C   UNL     1       1.538   3.559  -3.780  0.00  0.00    +0.000 A 
ATOM     10  C   UNL     1       2.534   2.987  -2.956  0.00  0.00    +0.000 A 
ATOM     11  C   UNL     1       2.220   1.942  -2.135  0.00  0.00    +0.000 A 
ATOM     12  H   UNL     1       3.881   4.818  -4.218  0.00  0.00    +0.000 HD
ENDROOT
BRANCH   8  13
ATOM     13  C   UNL     1       3.380   6.336  -5.684  0.00  0.00    +0.000 A 
ATOM     14  C   UNL     1       2.685   7.505  -5.465  0.00  0.00    +0.000 A 
ATOM     15  C   UNL     1       2.813   8.544  -6.360  0.00  0.00    +0.000 A 
ATOM     16  C   UNL     1       3.610   8.457  -7.487  0.00  0.00    +0.000 A 
ATOM     17  C   UNL     1       3.743   9.594  -8.465  0.00  0.00    +0.000 C 
ATOM     18  C   UNL     1       4.285   7.258  -7.721  0.00  0.00    +0.000 A 
ATOM     19  C   UNL     1       4.172   6.206  -6.811  0.00  0.00    +0.000 A 
BRANCH  18  20
ATOM     20  O   UNL     1       5.053   7.179  -8.845  0.00  0.00    +0.000 OA
ATOM     21  H   UNL     1       5.105   7.957  -9.470  0.00  0.00    +0.000 HD
ENDBRANCH  18  20
ENDBRANCH   8  13
BRANCH   1  23
ATOM     22  C   UNL     1       1.043   0.054  -0.072  0.00  0.00    +0.000 C 
ATOM     23  O   UNL     1       0.569   0.243  -1.398  0.00  0.00    +0.000 OA
ENDBRANCH   1  23
BRANCH  11  24
ATOM     24  O   UNL     1       3.219   1.377  -1.298  0.00  0.00    +0.000 OA
ATOM     25  C   UNL     1       2.897   0.291  -0.443  0.00  0.00    +0.000 C 
ENDBRANCH  11  24
TORSDOF 4
