REMARK  Name = 
REMARK  11 active torsions:
REMARK  status: ('A' for Active; 'I' for Inactive)
REMARK    1  A    between atoms: C_1  and  S_2
REMARK    2  A    between atoms: S_2  and  C_5
REMARK    3  A    between atoms: C_5  and  C_6
REMARK    4  A    between atoms: C_6  and  N_7
REMARK    5  A    between atoms: N_7  and  C_8
REMARK    6  A    between atoms: C_8  and  C_9
REMARK    7  A    between atoms: C_12  and  C_13
REMARK    8  A    between atoms: N_21  and  C_22
REMARK    9  A    between atoms: C_25  and  O_26
REMARK   10  A    between atoms: O_26  and  C_27
REMARK   11  A    between atoms: C_27  and  C_28
REMARK                            x       y       z     vdW  Elec       q    Type
REMARK                         _______ _______ _______ _____ _____    ______ ____
ROOT
ATOM      1  C   UNL     1      -4.216   5.155   1.691  0.00  0.00    +0.000 A 
ATOM      2  C   UNL     1      -5.160   5.082   2.732  0.00  0.00    +0.000 A 
ATOM      3  C   UNL     1      -6.268   5.884   2.729  0.00  0.00    +0.000 A 
ATOM      4  C   UNL     1      -6.465   6.819   1.688  0.00  0.00    +0.000 A 
ATOM      5  N   UNL     1      -7.564   7.641   1.709  0.00  0.00    +0.000 NA
ATOM      6  C   UNL     1      -7.684   8.477   0.716  0.00  0.00    +0.000 A 
ATOM      7  N   UNL     1      -6.838   8.612  -0.352  0.00  0.00    +0.000 NA
ATOM      8  C   UNL     1      -5.792   7.823  -0.393  0.00  0.00    +0.000 A 
ATOM      9  N   UNL     1      -4.871   7.916  -1.535  0.00  0.00    +0.000 N 
ATOM     10  C   UNL     1      -5.521   6.879   0.638  0.00  0.00    +0.000 A 
ATOM     11  C   UNL     1      -4.392   6.030   0.657  0.00  0.00    +0.000 A 
ATOM     12  H   UNL     1      -4.053   7.309  -1.581  0.00  0.00    +0.000 HD
ENDROOT
BRANCH   9  13
ATOM     13  C   UNL     1      -5.130   8.883  -2.611  0.00  0.00    +0.000 A 
ATOM     14  C   UNL     1      -5.425   8.333  -3.847  0.00  0.00    +0.000 A 
ATOM     15  C   UNL     1      -5.505   9.283  -4.893  0.00  0.00    +0.000 A 
ATOM     16  C   UNL     1      -5.656  10.582  -4.715  0.00  0.00    +0.000 A 
ATOM     17  C   UNL     1      -5.416  11.055  -3.454  0.00  0.00    +0.000 A 
ATOM     18  C   UNL     1      -5.200  10.194  -2.406  0.00  0.00    +0.000 A 
BRANCH  16  19
ATOM     19  O   UNL     1      -6.046  11.443  -5.775  0.00  0.00    +0.000 OA
BRANCH  19  20
ATOM     20  C   UNL     1      -6.196  12.835  -5.540  0.00  0.00    +0.000 C 
BRANCH  20  21
ATOM     21  C   UNL     1      -7.259  13.058  -4.477  0.00  0.00    +0.000 A 
ATOM     22  C   UNL     1      -7.598  14.352  -4.118  0.00  0.00    +0.000 A 
ATOM     23  C   UNL     1      -8.356  14.437  -2.926  0.00  0.00    +0.000 A 
ATOM     24  C   UNL     1      -9.005  13.426  -2.378  0.00  0.00    +0.000 A 
ATOM     25  C   UNL     1      -8.674  12.177  -2.824  0.00  0.00    +0.000 A 
ATOM     26  C   UNL     1      -7.836  12.010  -3.901  0.00  0.00    +0.000 A 
ENDBRANCH  20  21
ENDBRANCH  19  20
ENDBRANCH  16  19
ENDBRANCH   9  13
BRANCH   1  30
ATOM     27  C   UNL     1      -0.938   3.562   1.738  0.00  0.00    +0.000 A 
ATOM     28  C   UNL     1      -1.682   2.447   1.738  0.00  0.00    +0.000 A 
ATOM     29  C   UNL     1      -3.025   2.897   1.722  0.00  0.00    +0.000 A 
ATOM     30  C   UNL     1      -2.993   4.253   1.717  0.00  0.00    +0.000 A 
ATOM     31  O   UNL     1      -1.690   4.691   1.738  0.00  0.00    +0.000 OA
BRANCH  27  32
ATOM     32  C   UNL     1       0.582   3.562   1.738  0.00  0.00    +0.000 C 
BRANCH  32  33
ATOM     33  N   UNL     1       1.072   2.728   0.632  0.00  0.00    +0.000 NA
ATOM     34  H   UNL     1       0.732   1.773   0.750  0.00  0.00    +0.000 HD
BRANCH  33  35
ATOM     35  C   UNL     1       0.582   3.268  -0.644  0.00  0.00    +0.000 C 
BRANCH  35  36
ATOM     36  C   UNL     1       1.089   2.405  -1.788  0.00  0.00    +0.000 C 
BRANCH  36  38
ATOM     37  C   UNL     1       1.089   0.046  -0.008  0.00  0.00    +0.000 C 
ATOM     38  S   UNL     1       0.485   0.712  -1.579  0.00  0.00    +0.000 S 
ATOM     39  O   UNL     1       0.995  -0.158  -2.731  0.00  0.00    +0.000 OA
ATOM     40  O   UNL     1      -1.045   0.712  -1.579  0.00  0.00    +0.000 OA
ENDBRANCH  36  38
ENDBRANCH  35  36
ENDBRANCH  33  35
ENDBRANCH  32  33
ENDBRANCH  27  32
ENDBRANCH   1  30
TORSDOF 10
