
 OpenBabel03132514253D

 51 54  0  0  0  0  0  0  0  0999 V2000
    0.9809   -0.0812    0.0552 C   0  0  0  0  0  0  0  0  0  0  0  0
    0.3776    1.6205    0.1830 S   0  0  0  0  0  0  0  0  0  0  0  0
    0.8877    2.4335   -1.0090 O   0  0  0  0  0  0  0  0  0  0  0  0
   -1.1529    1.6205    0.1830 O   0  0  0  0  0  0  0  0  0  0  0  0
    0.9809    2.3606    1.7206 C   0  0  0  0  0  0  0  0  0  0  0  0
    0.4743    1.5531    2.9046 C   0  0  0  0  0  0  0  0  0  0  0  0
    0.9643    0.1711    2.8007 N   0  0  0  0  0  0  0  0  0  0  0  0
    0.4743   -0.6099    3.9457 C   0  0  0  0  0  0  0  0  0  0  0  0
   -1.0457   -0.6099    3.9457 C   0  0  0  0  0  0  0  0  0  0  0  0
   -1.7489    0.4855    3.9498 N   0  0  0  0  0  0  0  0  0  0  0  0
   -3.1116    0.2394    3.9244 C   0  0  0  0  0  0  0  0  0  0  0  0
   -4.1562    1.3433    3.8958 C   0  0  0  0  0  0  0  0  0  0  0  0
   -4.1721    2.2638    2.8304 C   0  0  0  0  0  0  0  0  0  0  0  0
   -5.1023    3.2647    2.7849 C   0  0  0  0  0  0  0  0  0  0  0  0
   -6.0815    3.3714    3.7977 C   0  0  0  0  0  0  0  0  0  0  0  0
   -7.0298    4.3601    3.7276 N   0  0  0  0  0  0  0  0  0  0  0  0
   -7.9009    4.4011    4.6980 C   0  0  0  0  0  0  0  0  0  0  0  0
   -7.9594    3.5722    5.7855 N   0  0  0  0  0  0  0  0  0  0  0  0
   -7.0504    2.6312    5.8728 C   0  0  0  0  0  0  0  0  0  0  0  0
   -7.0606    1.7345    7.0375 N   0  0  0  0  0  0  0  0  0  0  0  0
   -8.0803    1.8997    8.0834 C   0  0  0  0  0  0  0  0  0  0  0  0
   -9.4297    1.7872    7.7745 C   0  0  0  0  0  0  0  0  0  0  0  0
  -10.3991    1.9475    8.7431 C   0  0  0  0  0  0  0  0  0  0  0  0
  -10.0102    2.2196   10.0296 C   0  0  0  0  0  0  0  0  0  0  0  0
  -10.9517    2.4004   10.9782 F   0  0  0  0  0  0  0  0  0  0  0  0
   -8.6811    2.3414   10.3662 C   0  0  0  0  0  0  0  0  0  0  0  0
   -8.2328    2.7312   11.9914 Cl  0  0  0  0  0  0  0  0  0  0  0  0
   -7.7087    2.1800    9.3973 C   0  0  0  0  0  0  0  0  0  0  0  0
   -6.0537    2.4533    4.8715 C   0  0  0  0  0  0  0  0  0  0  0  0
   -5.0729    1.4359    4.9038 C   0  0  0  0  0  0  0  0  0  0  0  0
   -3.4287   -1.0939    3.9275 C   0  0  0  0  0  0  0  0  0  0  0  0
   -1.9803   -2.0657    3.9402 S   0  0  0  0  0  0  0  0  0  0  0  0
    0.6243   -0.5187   -0.8538 H   0  0  0  0  0  0  0  0  0  0  0  0
    0.6243   -0.6496    0.8886 H   0  0  0  0  0  0  0  0  0  0  0  0
    2.0509   -0.0812    0.0552 H   0  0  0  0  0  0  0  0  0  0  0  0
    2.0509    2.3606    1.7206 H   0  0  0  0  0  0  0  0  0  0  0  0
    0.6243    3.3666    1.7962 H   0  0  0  0  0  0  0  0  0  0  0  0
    0.8309    1.9906    3.8135 H   0  0  0  0  0  0  0  0  0  0  0  0
   -0.5957    1.5531    2.9046 H   0  0  0  0  0  0  0  0  0  0  0  0
    0.6243   -0.2460    1.9342 H   0  0  0  0  0  0  0  0  0  0  0  0
    0.8309   -1.6158    3.8701 H   0  0  0  0  0  0  0  0  0  0  0  0
    0.8309   -0.1723    4.8547 H   0  0  0  0  0  0  0  0  0  0  0  0
   -3.4479    2.1790    2.0474 H   0  0  0  0  0  0  0  0  0  0  0  0
   -5.0886    3.9694    1.9798 H   0  0  0  0  0  0  0  0  0  0  0  0
   -8.6490    5.1637    4.6371 H   0  0  0  0  0  0  0  0  0  0  0  0
   -6.3602    0.9976    7.1200 H   0  0  0  0  0  0  0  0  0  0  0  0
   -9.7226    1.5724    6.7680 H   0  0  0  0  0  0  0  0  0  0  0  0
  -11.4363    1.8611    8.4948 H   0  0  0  0  0  0  0  0  0  0  0  0
   -6.6741    2.2700    9.6549 H   0  0  0  0  0  0  0  0  0  0  0  0
   -5.0488    0.7400    5.7162 H   0  0  0  0  0  0  0  0  0  0  0  0
   -4.4251   -1.4840    3.9227 H   0  0  0  0  0  0  0  0  0  0  0  0
  1  2  1  0  0  0  0
  1 33  1  0  0  0  0
  1 34  1  0  0  0  0
  1 35  1  0  0  0  0
  2  3  2  0  0  0  0
  2  4  2  0  0  0  0
  2  5  1  0  0  0  0
  5  6  1  0  0  0  0
  5 36  1  0  0  0  0
  5 37  1  0  0  0  0
  6  7  1  0  0  0  0
  6 38  1  0  0  0  0
  6 39  1  0  0  0  0
  7  8  1  0  0  0  0
  7 40  1  0  0  0  0
  8  9  1  0  0  0  0
  8 41  1  0  0  0  0
  8 42  1  0  0  0  0
  9 10  2  0  0  0  0
  9 32  1  0  0  0  0
 10 11  1  0  0  0  0
 11 12  1  0  0  0  0
 11 31  2  0  0  0  0
 12 13  1  0  0  0  0
 12 30  2  0  0  0  0
 13 14  2  0  0  0  0
 13 43  1  0  0  0  0
 14 15  1  0  0  0  0
 14 44  1  0  0  0  0
 15 16  1  0  0  0  0
 15 29  2  0  0  0  0
 16 17  2  0  0  0  0
 17 18  1  0  0  0  0
 17 45  1  0  0  0  0
 18 19  2  0  0  0  0
 19 20  1  0  0  0  0
 19 29  1  0  0  0  0
 20 21  1  0  0  0  0
 20 46  1  0  0  0  0
 21 22  1  0  0  0  0
 21 28  2  0  0  0  0
 22 23  2  0  0  0  0
 22 47  1  0  0  0  0
 23 24  1  0  0  0  0
 23 48  1  0  0  0  0
 24 25  1  0  0  0  0
 24 26  2  0  0  0  0
 26 27  1  0  0  0  0
 26 28  1  0  0  0  0
 28 49  1  0  0  0  0
 29 30  1  0  0  0  0
 30 50  1  0  0  0  0
 31 32  1  0  0  0  0
 31 51  1  0  0  0  0
M  END
