REMARK  Name = 
REMARK  7 active torsions:
REMARK  status: ('A' for Active; 'I' for Inactive)
REMARK    1  A    between atoms: O_1  and  C_2
REMARK    2  A    between atoms: C_2  and  C_3
REMARK    3  A    between atoms: C_3  and  C_4
REMARK    4  A    between atoms: C_4  and  N_5
REMARK    5  A    between atoms: C_10  and  C_11
REMARK    6  A    between atoms: C_12  and  C_13
REMARK    7  A    between atoms: C_23  and  C_24
REMARK                            x       y       z     vdW  Elec       q    Type
REMARK                         _______ _______ _______ _____ _____    ______ ____
ROOT
ATOM      1  C   UNL     1       6.654   1.129   5.381  0.00  0.00    +0.000 A 
ATOM      2  C   UNL     1       7.760   0.776   4.757  0.00  0.00    +0.000 A 
ATOM      3  N   UNL     1       8.580   0.147   5.587  0.00  0.00    +0.000 NA
ATOM      4  N   UNL     1       8.006   0.083   6.787  0.00  0.00    +0.000 N 
ATOM      5  C   UNL     1       8.373  -0.448   8.041  0.00  0.00    +0.000 A 
ATOM      6  C   UNL     1       7.522  -0.334   9.084  0.00  0.00    +0.000 A 
ATOM      7  C   UNL     1       6.315   0.276   8.953  0.00  0.00    +0.000 A 
ATOM      8  C   UNL     1       5.911   0.808   7.778  0.00  0.00    +0.000 A 
ATOM      9  C   UNL     1       6.742   0.726   6.659  0.00  0.00    +0.000 A 
ENDROOT
BRANCH   1  15
ATOM     10  N   UNL     1       2.946   1.532   2.257  0.00  0.00    +0.000 N 
ATOM     11  C   UNL     1       3.791   2.110   3.311  0.00  0.00    +0.000 A 
ATOM     12  N   UNL     1       3.411   3.323   3.733  0.00  0.00    +0.000 NA
ATOM     13  C   UNL     1       4.121   3.787   4.772  0.00  0.00    +0.000 A 
ATOM     14  C   UNL     1       5.157   3.119   5.345  0.00  0.00    +0.000 A 
ATOM     15  C   UNL     1       5.476   1.896   4.804  0.00  0.00    +0.000 A 
ATOM     16  N   UNL     1       4.797   1.358   3.800  0.00  0.00    +0.000 NA
ATOM     17  H   UNL     1       2.700   2.088   1.438  0.00  0.00    +0.000 HD
BRANCH  10  18
ATOM     18  C   UNL     1       2.456   0.151   2.382  0.00  0.00    +0.000 C 
BRANCH  18  19
ATOM     19  C   UNL     1       0.936   0.151   2.382  0.00  0.00    +0.000 C 
BRANCH  19  20
ATOM     20  C   UNL     1       0.429   0.752   1.081  0.00  0.00    +0.000 C 
BRANCH  20  21
ATOM     21  O   UNL     1       0.903  -0.019  -0.013  0.00  0.00    +0.000 OA
ATOM     22  H   UNL     1       1.903  -0.019  -0.013  0.00  0.00    +0.000 HD
ENDBRANCH  20  21
ENDBRANCH  19  20
ENDBRANCH  18  19
ENDBRANCH  10  18
ENDBRANCH   1  15
BRANCH   2  23
ATOM     23  C   UNL     1       8.053   1.052   3.292  0.00  0.00    +0.000 A 
ATOM     24  C   UNL     1       8.094   2.386   2.800  0.00  0.00    +0.000 A 
ATOM     25  C   UNL     1       7.997   2.614   1.417  0.00  0.00    +0.000 A 
ATOM     26  C   UNL     1       8.145   1.627   0.583  0.00  0.00    +0.000 A 
ATOM     27  F   UNL     1       8.042   1.842  -0.725  0.00  0.00    +0.000 F 
ATOM     28  C   UNL     1       8.411   0.337   1.061  0.00  0.00    +0.000 A 
ATOM     29  C   UNL     1       8.211   0.044   2.432  0.00  0.00    +0.000 A 
ENDBRANCH   2  23
BRANCH   6  30
ATOM     30  C   UNL     1       7.925  -0.900  10.435  0.00  0.00    +0.000 C 
ATOM     31  F   UNL     1       8.136  -2.208  10.323  0.00  0.00    +0.000 F 
ATOM     32  F   UNL     1       9.040  -0.305  10.851  0.00  0.00    +0.000 F 
ATOM     33  F   UNL     1       6.952  -0.683  11.315  0.00  0.00    +0.000 F 
ENDBRANCH   6  30
TORSDOF 7
