REMARK  Name = 
REMARK  11 active torsions:
REMARK  status: ('A' for Active; 'I' for Inactive)
REMARK    1  A    between atoms: C_1  and  S_2
REMARK    2  A    between atoms: S_2  and  C_5
REMARK    3  A    between atoms: C_5  and  C_6
REMARK    4  A    between atoms: C_6  and  N_7
REMARK    5  A    between atoms: N_7  and  C_8
REMARK    6  A    between atoms: C_8  and  C_9
REMARK    7  A    between atoms: C_12  and  C_13
REMARK    8  A    between atoms: N_21  and  C_22
REMARK    9  A    between atoms: C_25  and  O_26
REMARK   10  A    between atoms: O_26  and  C_27
REMARK   11  A    between atoms: C_27  and  C_28
REMARK                            x       y       z     vdW  Elec       q    Type
REMARK                         _______ _______ _______ _____ _____    ______ ____
ROOT
ATOM      1  C   UNL     1      -4.429  -2.773   3.658  0.00  0.00    +0.000 A 
ATOM      2  C   UNL     1      -4.658  -3.680   4.711  0.00  0.00    +0.000 A 
ATOM      3  C   UNL     1      -5.775  -4.468   4.725  0.00  0.00    +0.000 A 
ATOM      4  C   UNL     1      -6.733  -4.361   3.692  0.00  0.00    +0.000 A 
ATOM      5  N   UNL     1      -7.866  -5.133   3.730  0.00  0.00    +0.000 NA
ATOM      6  C   UNL     1      -8.706  -4.984   2.743  0.00  0.00    +0.000 A 
ATOM      7  N   UNL     1      -8.568  -4.151   1.665  0.00  0.00    +0.000 NA
ATOM      8  C   UNL     1      -7.483  -3.417   1.609  0.00  0.00    +0.000 A 
ATOM      9  N   UNL     1      -7.283  -2.527   0.456  0.00  0.00    +0.000 N 
ATOM     10  C   UNL     1      -6.493  -3.458   2.631  0.00  0.00    +0.000 A 
ATOM     11  C   UNL     1      -5.323  -2.665   2.631  0.00  0.00    +0.000 A 
ATOM     12  H   UNL     1      -6.444  -1.950   0.397  0.00  0.00    +0.000 HD
ENDROOT
BRANCH   9  13
ATOM     13  C   UNL     1      -8.292  -2.469  -0.612  0.00  0.00    +0.000 A 
ATOM     14  C   UNL     1      -7.931  -2.804  -1.906  0.00  0.00    +0.000 A 
ATOM     15  C   UNL     1      -8.887  -2.434  -2.882  0.00  0.00    +0.000 A 
ATOM     16  C   UNL     1     -10.148  -2.139  -2.620  0.00  0.00    +0.000 A 
ATOM     17  C   UNL     1     -10.454  -1.885  -1.312  0.00  0.00    +0.000 A 
ATOM     18  C   UNL     1      -9.532  -2.097  -0.317  0.00  0.00    +0.000 A 
BRANCH  16  19
ATOM     19  O   UNL     1     -11.132  -2.088  -3.643  0.00  0.00    +0.000 OA
BRANCH  19  20
ATOM     20  C   UNL     1     -12.476  -1.766  -3.319  0.00  0.00    +0.000 C 
BRANCH  20  21
ATOM     21  C   UNL     1     -13.020  -2.792  -2.338  0.00  0.00    +0.000 A 
ATOM     22  C   UNL     1     -13.499  -2.411  -1.095  0.00  0.00    +0.000 A 
ATOM     23  C   UNL     1     -13.512  -3.455  -0.141  0.00  0.00    +0.000 A 
ATOM     24  C   UNL     1     -13.439  -4.740  -0.436  0.00  0.00    +0.000 A 
ATOM     25  C   UNL     1     -13.025  -5.051  -1.702  0.00  0.00    +0.000 A 
ATOM     26  C   UNL     1     -12.863  -4.072  -2.652  0.00  0.00    +0.000 A 
ENDBRANCH  20  21
ENDBRANCH  19  20
ENDBRANCH  16  19
ENDBRANCH   9  13
BRANCH   1  30
ATOM     27  C   UNL     1      -1.047  -1.252   3.661  0.00  0.00    +0.000 A 
ATOM     28  C   UNL     1      -1.861  -0.188   3.659  0.00  0.00    +0.000 A 
ATOM     29  O   UNL     1      -3.172  -0.534   3.674  0.00  0.00    +0.000 OA
ATOM     30  C   UNL     1      -3.179  -1.908   3.665  0.00  0.00    +0.000 A 
ATOM     31  C   UNL     1      -1.907  -2.378   3.664  0.00  0.00    +0.000 A 
BRANCH  27  32
ATOM     32  C   UNL     1       0.473  -1.252   3.661  0.00  0.00    +0.000 C 
BRANCH  32  33
ATOM     33  N   UNL     1       0.963  -0.285   2.669  0.00  0.00    +0.000 NA
ATOM     34  H   UNL     1       0.623  -0.546   1.743  0.00  0.00    +0.000 HD
BRANCH  33  35
ATOM     35  C   UNL     1       0.473   1.058   3.010  0.00  0.00    +0.000 C 
BRANCH  35  36
ATOM     36  C   UNL     1       0.980   2.058   1.984  0.00  0.00    +0.000 C 
BRANCH  36  38
ATOM     37  C   UNL     1       0.980  -0.058  -0.079  0.00  0.00    +0.000 C 
ATOM     38  S   UNL     1       0.377   1.596   0.342  0.00  0.00    +0.000 S 
ATOM     39  O   UNL     1       0.887   2.603  -0.692  0.00  0.00    +0.000 OA
ATOM     40  O   UNL     1      -1.154   1.596   0.342  0.00  0.00    +0.000 OA
ENDBRANCH  36  38
ENDBRANCH  35  36
ENDBRANCH  33  35
ENDBRANCH  32  33
ENDBRANCH  27  32
ENDBRANCH   1  30
TORSDOF 10
