REMARK  Name = 
REMARK  11 active torsions:
REMARK  status: ('A' for Active; 'I' for Inactive)
REMARK    1  A    between atoms: C_1  and  S_2
REMARK    2  A    between atoms: S_2  and  C_5
REMARK    3  A    between atoms: C_5  and  C_6
REMARK    4  A    between atoms: C_6  and  N_7
REMARK    5  A    between atoms: N_7  and  C_8
REMARK    6  A    between atoms: C_8  and  C_9
REMARK    7  A    between atoms: C_13  and  C_14
REMARK    8  A    between atoms: N_22  and  C_23
REMARK    9  A    between atoms: C_26  and  O_27
REMARK   10  A    between atoms: O_27  and  C_28
REMARK   11  A    between atoms: C_28  and  C_29
REMARK                            x       y       z     vdW  Elec       q    Type
REMARK                         _______ _______ _______ _____ _____    ______ ____
ROOT
ATOM      1  C   UNL     1      -1.403  -6.513  -0.109  0.00  0.00    +0.000 A 
ATOM      2  C   UNL     1      -0.595  -6.989   0.941  0.00  0.00    +0.000 A 
ATOM      3  C   UNL     1      -0.149  -8.281   0.950  0.00  0.00    +0.000 A 
ATOM      4  C   UNL     1      -0.519  -9.167  -0.086  0.00  0.00    +0.000 A 
ATOM      5  N   UNL     1      -0.092 -10.471  -0.052  0.00  0.00    +0.000 NA
ATOM      6  C   UNL     1      -0.469 -11.232  -1.042  0.00  0.00    +0.000 A 
ATOM      7  N   UNL     1      -1.232 -10.864  -2.118  0.00  0.00    +0.000 NA
ATOM      8  C   UNL     1      -1.635  -9.618  -2.170  0.00  0.00    +0.000 A 
ATOM      9  N   UNL     1      -2.435  -9.174  -3.320  0.00  0.00    +0.000 N 
ATOM     10  C   UNL     1      -1.319  -8.682  -1.144  0.00  0.00    +0.000 A 
ATOM     11  C   UNL     1      -1.756  -7.338  -1.138  0.00  0.00    +0.000 A 
ATOM     12  H   UNL     1      -2.756  -8.207  -3.376  0.00  0.00    +0.000 HD
ENDROOT
BRANCH   9  13
ATOM     13  C   UNL     1      -2.772 -10.122  -4.391  0.00  0.00    +0.000 A 
ATOM     14  C   UNL     1      -2.276 -10.013  -5.680  0.00  0.00    +0.000 A 
ATOM     15  C   UNL     1      -2.825 -10.950  -6.587  0.00  0.00    +0.000 A 
ATOM     16  C   UNL     1      -3.458 -12.053  -6.232  0.00  0.00    +0.000 A 
ATOM     17  C   UNL     1      -3.863 -12.130  -4.928  0.00  0.00    +0.000 A 
ATOM     18  C   UNL     1      -3.476 -11.183  -4.011  0.00  0.00    +0.000 A 
BRANCH  16  19
ATOM     19  O   UNL     1      -3.706 -13.104  -7.155  0.00  0.00    +0.000 OA
BRANCH  19  20
ATOM     20  C   UNL     1      -4.390 -14.274  -6.732  0.00  0.00    +0.000 C 
BRANCH  20  21
ATOM     21  C   UNL     1      -3.606 -14.944  -5.615  0.00  0.00    +0.000 A 
ATOM     22  C   UNL     1      -3.635 -16.327  -5.547  0.00  0.00    +0.000 A 
ATOM     23  C   UNL     1      -3.250 -16.846  -4.288  0.00  0.00    +0.000 A 
ATOM     24  C   UNL     1      -2.583 -16.170  -3.371  0.00  0.00    +0.000 A 
ATOM     25  C   UNL     1      -2.533 -14.813  -3.532  0.00  0.00    +0.000 A 
ATOM     26  C   UNL     1      -3.008 -14.220  -4.677  0.00  0.00    +0.000 A 
ENDBRANCH  20  21
ENDBRANCH  19  20
ENDBRANCH  16  19
ENDBRANCH   9  13
BRANCH   1  31
ATOM     27  C   UNL     1      -1.081  -3.980  -0.093  0.00  0.00    +0.000 A 
ATOM     28  C   UNL     1      -1.922  -2.841  -0.091  0.00  0.00    +0.000 A 
ATOM     29  C   UNL     1      -3.171  -3.326  -0.094  0.00  0.00    +0.000 A 
ATOM     30  O   UNL     1      -3.204  -4.682  -0.085  0.00  0.00    +0.000 OA
ATOM     31  C   UNL     1      -1.886  -5.072  -0.096  0.00  0.00    +0.000 A 
BRANCH  27  32
ATOM     32  C   UNL     1       0.440  -3.980  -0.093  0.00  0.00    +0.000 C 
BRANCH  32  33
ATOM     33  N   UNL     1       0.929  -2.766   0.575  0.00  0.00    +0.000 NA
ATOM     34  H   UNL     1       0.590  -1.943   0.077  0.00  0.00    +0.000 HD
BRANCH  33  35
ATOM     35  C   UNL     1       0.440  -2.738   1.961  0.00  0.00    +0.000 C 
BRANCH  35  36
ATOM     36  C   UNL     1       0.946  -1.482   2.651  0.00  0.00    +0.000 C 
BRANCH  36  38
ATOM     37  C   UNL     1       0.946  -0.057   0.062  0.00  0.00    +0.000 C 
ATOM     38  S   UNL     1       0.343  -0.022   1.768  0.00  0.00    +0.000 S 
ATOM     39  O   UNL     1       0.853   1.242   2.464  0.00  0.00    +0.000 OA
ATOM     40  O   UNL     1      -1.188  -0.022   1.768  0.00  0.00    +0.000 OA
ENDBRANCH  36  38
ENDBRANCH  35  36
ENDBRANCH  33  35
ENDBRANCH  32  33
ENDBRANCH  27  32
ENDBRANCH   1  31
TORSDOF 10
