REMARK  Name = 
REMARK  4 active torsions:
REMARK  status: ('A' for Active; 'I' for Inactive)
REMARK    1  A    between atoms: C_2  and  C_3
REMARK    2  A    between atoms: C_7  and  C_8
REMARK    3  A    between atoms: N_13  and  C_14
REMARK    4  A    between atoms: C_18  and  C_19
REMARK                            x       y       z     vdW  Elec       q    Type
REMARK                         _______ _______ _______ _____ _____    ______ ____
ROOT
ATOM      1  C   UNL     1       3.800  -0.047   0.086  0.00  0.00    +0.000 A 
ATOM      2  C   UNL     1       4.463   1.139   0.085  0.00  0.00    +0.000 A 
ATOM      3  C   UNL     1       5.814   1.198   0.097  0.00  0.00    +0.000 A 
ATOM      4  C   UNL     1       6.558   0.016   0.100  0.00  0.00    +0.000 A 
ATOM      5  C   UNL     1       7.868  -0.279   0.106  0.00  0.00    +0.000 A 
ATOM      6  C   UNL     1       7.998  -1.590   0.106  0.00  0.00    +0.000 A 
ATOM      7  N   UNL     1       6.809  -2.174   0.099  0.00  0.00    +0.000 NA
ATOM      8  N   UNL     1       5.870  -1.230   0.095  0.00  0.00    +0.000 N 
ATOM      9  C   UNL     1       4.460  -1.226   0.088  0.00  0.00    +0.000 A 
ENDROOT
BRANCH   5  10
ATOM     10  C   UNL     1       9.007   0.728   0.111  0.00  0.00    +0.000 A 
ATOM     11  C   UNL     1       9.946   0.757  -0.914  0.00  0.00    +0.000 A 
ATOM     12  C   UNL     1      10.631   1.978  -1.108  0.00  0.00    +0.000 A 
ATOM     13  N   UNL     1      10.919   2.713   0.040  0.00  0.00    +0.000 NA
ATOM     14  C   UNL     1      10.179   2.517   1.111  0.00  0.00    +0.000 A 
ATOM     15  N   UNL     1      10.461   3.275   2.338  0.00  0.00    +0.000 N 
ATOM     16  N   UNL     1       9.127   1.595   1.093  0.00  0.00    +0.000 NA
ATOM     17  H   UNL     1       9.891   3.127   3.171  0.00  0.00    +0.000 HD
BRANCH  15  18
ATOM     18  C   UNL     1      11.565   4.245   2.366  0.00  0.00    +0.000 C 
ATOM     19  C   UNL     1      12.577   4.185   1.220  0.00  0.00    +0.000 C 
ATOM     20  C   UNL     1      11.950   5.524   1.617  0.00  0.00    +0.000 C 
ENDBRANCH  15  18
ENDBRANCH   5  10
BRANCH   6  21
ATOM     21  C   UNL     1       9.327  -2.329   0.115  0.00  0.00    +0.000 A 
ATOM     22  C   UNL     1      10.247  -2.142   1.183  0.00  0.00    +0.000 A 
ATOM     23  C   UNL     1      11.572  -2.586   1.036  0.00  0.00    +0.000 A 
ATOM     24  C   UNL     1      11.885  -3.392   0.065  0.00  0.00    +0.000 A 
ATOM     25  F   UNL     1      13.141  -3.803  -0.079  0.00  0.00    +0.000 F 
ATOM     26  C   UNL     1      10.899  -3.828  -0.831  0.00  0.00    +0.000 A 
ATOM     27  C   UNL     1       9.651  -3.161  -0.876  0.00  0.00    +0.000 A 
ENDBRANCH   6  21
BRANCH   1  29
ATOM     28  N   UNL     1       1.019  -0.047   0.086  0.00  0.00    +0.000 NA
ATOM     29  C   UNL     1       2.280  -0.047   0.086  0.00  0.00    +0.000 C 
ENDBRANCH   1  29
TORSDOF 4
