REMARK  Name = 
REMARK  3 active torsions:
REMARK  status: ('A' for Active; 'I' for Inactive)
REMARK    1  A    between atoms: C_6  and  C_7
REMARK    2  A    between atoms: C_8  and  C_9
REMARK    3  A    between atoms: C_19  and  C_20
REMARK                            x       y       z     vdW  Elec       q    Type
REMARK                         _______ _______ _______ _____ _____    ______ ____
ROOT
ATOM      1  C   UNL     1       1.828  -2.523   0.038  0.00  0.00    +0.000 A 
ATOM      2  C   UNL     1       2.653  -2.924   0.984  0.00  0.00    +0.000 A 
ATOM      3  N   UNL     1       3.132  -4.126   0.702  0.00  0.00    +0.000 NA
ATOM      4  N   UNL     1       2.612  -4.532  -0.455  0.00  0.00    +0.000 N 
ATOM      5  C   UNL     1       2.734  -5.690  -1.252  0.00  0.00    +0.000 A 
ATOM      6  C   UNL     1       2.039  -5.775  -2.407  0.00  0.00    +0.000 A 
ATOM      7  C   UNL     1       1.227  -4.769  -2.825  0.00  0.00    +0.000 A 
ATOM      8  C   UNL     1       1.066  -3.639  -2.100  0.00  0.00    +0.000 A 
ATOM      9  C   UNL     1       1.755  -3.485  -0.896  0.00  0.00    +0.000 A 
ENDROOT
BRANCH   1  15
ATOM     10  N   UNL     1      -2.203  -0.001   0.012  0.00  0.00    +0.000 N 
ATOM     11  C   UNL     1      -0.856   0.009  -0.004  0.00  0.00    +0.000 A 
ATOM     12  N   UNL     1      -0.240   1.209  -0.005  0.00  0.00    +0.000 NA
ATOM     13  C   UNL     1       1.102   1.188  -0.004  0.00  0.00    +0.000 A 
ATOM     14  C   UNL     1       1.812  -0.011   0.009  0.00  0.00    +0.000 A 
ATOM     15  C   UNL     1       1.085  -1.197   0.009  0.00  0.00    +0.000 A 
ATOM     16  N   UNL     1      -0.252  -1.199  -0.016  0.00  0.00    +0.000 NA
ATOM     17  H   UNL     1      -2.720   0.878   0.023  0.00  0.00    +0.000 HD
ATOM     18  H   UNL     1      -2.706  -0.888   0.013  0.00  0.00    +0.000 HD
ENDBRANCH   1  15
BRANCH   2  19
ATOM     19  C   UNL     1       3.006  -2.119   2.224  0.00  0.00    +0.000 A 
ATOM     20  C   UNL     1       1.932  -1.772   3.090  0.00  0.00    +0.000 A 
ATOM     21  C   UNL     1       2.167  -0.898   4.163  0.00  0.00    +0.000 A 
ATOM     22  C   UNL     1       3.385  -0.627   4.527  0.00  0.00    +0.000 A 
ATOM     23  F   UNL     1       3.607   0.209   5.538  0.00  0.00    +0.000 F 
ATOM     24  C   UNL     1       4.466  -1.215   3.857  0.00  0.00    +0.000 A 
ATOM     25  C   UNL     1       4.255  -1.843   2.605  0.00  0.00    +0.000 A 
ENDBRANCH   2  19
BRANCH   6  26
ATOM     26  C   UNL     1       2.167  -7.027  -3.259  0.00  0.00    +0.000 C 
ATOM     27  F   UNL     1       3.436  -7.187  -3.624  0.00  0.00    +0.000 F 
ATOM     28  F   UNL     1       1.772  -8.085  -2.556  0.00  0.00    +0.000 F 
ATOM     29  F   UNL     1       1.405  -6.906  -4.343  0.00  0.00    +0.000 F 
ENDBRANCH   6  26
TORSDOF 3
