REMARK  Name = 
REMARK  12 active torsions:
REMARK  status: ('A' for Active; 'I' for Inactive)
REMARK    1  A    between atoms: C_1  and  S_2
REMARK    2  A    between atoms: S_2  and  C_5
REMARK    3  A    between atoms: C_5  and  C_6
REMARK    4  A    between atoms: C_6  and  N_7
REMARK    5  A    between atoms: N_7  and  C_8
REMARK    6  A    between atoms: C_8  and  C_9
REMARK    7  A    between atoms: C_12  and  C_13
REMARK    8  A    between atoms: N_21  and  C_22
REMARK    9  A    between atoms: C_25  and  O_26
REMARK   10  A    between atoms: O_26  and  C_27
REMARK   11  A    between atoms: C_27  and  C_28
REMARK   12  A    between atoms: C_32  and  C_33
REMARK                            x       y       z     vdW  Elec       q    Type
REMARK                         _______ _______ _______ _____ _____    ______ ____
ROOT
ATOM      1  C   UNL     1      -4.269   4.513   2.458  0.00  0.00    +0.000 A 
ATOM      2  C   UNL     1      -5.213   4.440   3.500  0.00  0.00    +0.000 A 
ATOM      3  C   UNL     1      -6.321   5.242   3.496  0.00  0.00    +0.000 A 
ATOM      4  C   UNL     1      -6.518   6.177   2.456  0.00  0.00    +0.000 A 
ATOM      5  N   UNL     1      -7.617   6.998   2.477  0.00  0.00    +0.000 NA
ATOM      6  C   UNL     1      -7.737   7.835   1.483  0.00  0.00    +0.000 A 
ATOM      7  N   UNL     1      -6.891   7.970   0.415  0.00  0.00    +0.000 NA
ATOM      8  C   UNL     1      -5.845   7.181   0.375  0.00  0.00    +0.000 A 
ATOM      9  N   UNL     1      -4.924   7.274  -0.768  0.00  0.00    +0.000 N 
ATOM     10  C   UNL     1      -5.574   6.237   1.406  0.00  0.00    +0.000 A 
ATOM     11  C   UNL     1      -4.445   5.388   1.424  0.00  0.00    +0.000 A 
ATOM     12  H   UNL     1      -4.105   6.667  -0.814  0.00  0.00    +0.000 HD
ENDROOT
BRANCH   9  13
ATOM     13  C   UNL     1      -5.183   8.241  -1.844  0.00  0.00    +0.000 A 
ATOM     14  C   UNL     1      -5.478   7.691  -3.080  0.00  0.00    +0.000 A 
ATOM     15  C   UNL     1      -5.558   8.641  -4.126  0.00  0.00    +0.000 A 
ATOM     16  C   UNL     1      -5.709   9.940  -3.948  0.00  0.00    +0.000 A 
ATOM     17  C   UNL     1      -5.469  10.413  -2.687  0.00  0.00    +0.000 A 
ATOM     18  C   UNL     1      -5.253   9.552  -1.639  0.00  0.00    +0.000 A 
BRANCH  16  19
ATOM     19  O   UNL     1      -6.099  10.801  -5.008  0.00  0.00    +0.000 OA
BRANCH  19  20
ATOM     20  C   UNL     1      -6.249  12.193  -4.773  0.00  0.00    +0.000 C 
BRANCH  20  21
ATOM     21  C   UNL     1      -7.312  12.416  -3.710  0.00  0.00    +0.000 A 
ATOM     22  C   UNL     1      -7.651  13.710  -3.351  0.00  0.00    +0.000 A 
ATOM     23  C   UNL     1      -8.409  13.795  -2.159  0.00  0.00    +0.000 A 
ATOM     24  C   UNL     1      -9.058  12.784  -1.611  0.00  0.00    +0.000 A 
ATOM     25  C   UNL     1      -8.726  11.534  -2.057  0.00  0.00    +0.000 A 
ATOM     26  C   UNL     1      -7.889  11.368  -3.133  0.00  0.00    +0.000 A 
BRANCH  25  27
ATOM     27  C   UNL     1      -9.292  10.313  -1.352  0.00  0.00    +0.000 C 
ATOM     28  F   UNL     1      -8.908  10.318  -0.078  0.00  0.00    +0.000 F 
ATOM     29  F   UNL     1     -10.620  10.340  -1.414  0.00  0.00    +0.000 F 
ATOM     30  F   UNL     1      -8.843   9.210  -1.946  0.00  0.00    +0.000 F 
ENDBRANCH  25  27
ENDBRANCH  20  21
ENDBRANCH  19  20
ENDBRANCH  16  19
ENDBRANCH   9  13
BRANCH   1  34
ATOM     31  C   UNL     1      -0.991   2.921   2.505  0.00  0.00    +0.000 A 
ATOM     32  C   UNL     1      -1.735   1.805   2.505  0.00  0.00    +0.000 A 
ATOM     33  C   UNL     1      -3.078   2.255   2.489  0.00  0.00    +0.000 A 
ATOM     34  C   UNL     1      -3.046   3.611   2.484  0.00  0.00    +0.000 A 
ATOM     35  O   UNL     1      -1.743   4.049   2.506  0.00  0.00    +0.000 OA
BRANCH  31  36
ATOM     36  C   UNL     1       0.529   2.921   2.505  0.00  0.00    +0.000 C 
BRANCH  36  37
ATOM     37  N   UNL     1       1.019   2.400   1.221  0.00  0.00    +0.000 NA
ATOM     38  H   UNL     1       0.679   1.447   1.088  0.00  0.00    +0.000 HD
BRANCH  37  39
ATOM     39  C   UNL     1       0.529   3.252   0.128  0.00  0.00    +0.000 C 
BRANCH  39  40
ATOM     40  C   UNL     1       1.036   2.713  -1.200  0.00  0.00    +0.000 C 
BRANCH  40  42
ATOM     41  C   UNL     1       1.036  -0.026  -0.090  0.00  0.00    +0.000 C 
ATOM     42  S   UNL     1       0.432   1.023  -1.436  0.00  0.00    +0.000 S 
ATOM     43  O   UNL     1       0.942   0.481  -2.773  0.00  0.00    +0.000 OA
ATOM     44  O   UNL     1      -1.098   1.023  -1.436  0.00  0.00    +0.000 OA
ENDBRANCH  40  42
ENDBRANCH  39  40
ENDBRANCH  37  39
ENDBRANCH  36  37
ENDBRANCH  31  36
ENDBRANCH   1  34
TORSDOF 11
