REMARK  Name = 
REMARK  12 active torsions:
REMARK  status: ('A' for Active; 'I' for Inactive)
REMARK    1  A    between atoms: C_1  and  S_2
REMARK    2  A    between atoms: S_2  and  C_5
REMARK    3  A    between atoms: C_5  and  C_6
REMARK    4  A    between atoms: C_6  and  N_7
REMARK    5  A    between atoms: N_7  and  C_8
REMARK    6  A    between atoms: C_8  and  C_9
REMARK    7  A    between atoms: C_12  and  C_13
REMARK    8  A    between atoms: N_21  and  C_22
REMARK    9  A    between atoms: C_25  and  O_26
REMARK   10  A    between atoms: O_26  and  C_27
REMARK   11  A    between atoms: C_27  and  C_28
REMARK   12  A    between atoms: C_34  and  C_35
REMARK                            x       y       z     vdW  Elec       q    Type
REMARK                         _______ _______ _______ _____ _____    ______ ____
ROOT
ATOM      1  C   UNL     1      -4.368  -0.820  -3.226  0.00  0.00    +0.000 A 
ATOM      2  C   UNL     1      -5.312  -0.892  -2.184  0.00  0.00    +0.000 A 
ATOM      3  C   UNL     1      -6.420  -0.091  -2.188  0.00  0.00    +0.000 A 
ATOM      4  C   UNL     1      -6.617   0.844  -3.228  0.00  0.00    +0.000 A 
ATOM      5  N   UNL     1      -7.715   1.666  -3.207  0.00  0.00    +0.000 NA
ATOM      6  C   UNL     1      -7.835   2.502  -4.201  0.00  0.00    +0.000 A 
ATOM      7  N   UNL     1      -6.990   2.637  -5.269  0.00  0.00    +0.000 NA
ATOM      8  C   UNL     1      -5.944   1.848  -5.309  0.00  0.00    +0.000 A 
ATOM      9  N   UNL     1      -5.023   1.941  -6.451  0.00  0.00    +0.000 N 
ATOM     10  C   UNL     1      -5.673   0.904  -4.278  0.00  0.00    +0.000 A 
ATOM     11  C   UNL     1      -4.543   0.055  -4.260  0.00  0.00    +0.000 A 
ATOM     12  H   UNL     1      -4.204   1.334  -6.497  0.00  0.00    +0.000 HD
ENDROOT
BRANCH   9  13
ATOM     13  C   UNL     1      -5.282   2.909  -7.527  0.00  0.00    +0.000 A 
ATOM     14  C   UNL     1      -5.577   2.358  -8.764  0.00  0.00    +0.000 A 
ATOM     15  C   UNL     1      -5.657   3.308  -9.810  0.00  0.00    +0.000 A 
ATOM     16  C   UNL     1      -5.808   4.607  -9.631  0.00  0.00    +0.000 A 
ATOM     17  C   UNL     1      -5.568   5.080  -8.371  0.00  0.00    +0.000 A 
ATOM     18  C   UNL     1      -5.351   4.219  -7.323  0.00  0.00    +0.000 A 
BRANCH  17  19
ATOM     19  C   UNL     1      -5.540   6.580  -8.126  0.00  0.00    +0.000 C 
ATOM     20  F   UNL     1      -4.587   7.133  -8.870  0.00  0.00    +0.000 F 
ATOM     21  F   UNL     1      -6.718   7.104  -8.453  0.00  0.00    +0.000 F 
ATOM     22  F   UNL     1      -5.293   6.815  -6.840  0.00  0.00    +0.000 F 
ENDBRANCH  17  19
BRANCH  16  23
ATOM     23  O   UNL     1      -6.197   5.468 -10.691  0.00  0.00    +0.000 OA
BRANCH  23  24
ATOM     24  C   UNL     1      -6.348   6.860 -10.457  0.00  0.00    +0.000 C 
BRANCH  24  25
ATOM     25  C   UNL     1      -7.411   7.083  -9.393  0.00  0.00    +0.000 A 
ATOM     26  C   UNL     1      -7.750   8.377  -9.035  0.00  0.00    +0.000 A 
ATOM     27  C   UNL     1      -8.508   8.462  -7.843  0.00  0.00    +0.000 A 
ATOM     28  C   UNL     1      -9.157   7.451  -7.295  0.00  0.00    +0.000 A 
ATOM     29  C   UNL     1      -8.825   6.202  -7.741  0.00  0.00    +0.000 A 
ATOM     30  C   UNL     1      -7.988   6.035  -8.817  0.00  0.00    +0.000 A 
ENDBRANCH  24  25
ENDBRANCH  23  24
ENDBRANCH  16  23
ENDBRANCH   9  13
BRANCH   1  34
ATOM     31  C   UNL     1      -1.090  -2.413  -3.179  0.00  0.00    +0.000 A 
ATOM     32  C   UNL     1      -1.834  -3.528  -3.179  0.00  0.00    +0.000 A 
ATOM     33  C   UNL     1      -3.177  -3.078  -3.195  0.00  0.00    +0.000 A 
ATOM     34  C   UNL     1      -3.144  -1.722  -3.200  0.00  0.00    +0.000 A 
ATOM     35  O   UNL     1      -1.842  -1.284  -3.178  0.00  0.00    +0.000 OA
BRANCH  31  36
ATOM     36  C   UNL     1       0.430  -2.413  -3.179  0.00  0.00    +0.000 C 
BRANCH  36  37
ATOM     37  N   UNL     1       0.920  -2.171  -1.814  0.00  0.00    +0.000 NA
ATOM     38  H   UNL     1       0.580  -1.268  -1.485  0.00  0.00    +0.000 HD
BRANCH  37  39
ATOM     39  C   UNL     1       0.430  -3.233  -0.923  0.00  0.00    +0.000 C 
BRANCH  39  40
ATOM     40  C   UNL     1       0.937  -2.984   0.489  0.00  0.00    +0.000 C 
BRANCH  40  42
ATOM     41  C   UNL     1       0.937  -0.073  -0.025  0.00  0.00    +0.000 C 
ATOM     42  S   UNL     1       0.333  -1.380   1.072  0.00  0.00    +0.000 S 
ATOM     43  O   UNL     1       0.844  -1.129   2.493  0.00  0.00    +0.000 OA
ATOM     44  O   UNL     1      -1.197  -1.380   1.072  0.00  0.00    +0.000 OA
ENDBRANCH  40  42
ENDBRANCH  39  40
ENDBRANCH  37  39
ENDBRANCH  36  37
ENDBRANCH  31  36
ENDBRANCH   1  34
TORSDOF 11
