REMARK  Name = 
REMARK  11 active torsions:
REMARK  status: ('A' for Active; 'I' for Inactive)
REMARK    1  A    between atoms: C_1  and  S_2
REMARK    2  A    between atoms: S_2  and  C_5
REMARK    3  A    between atoms: C_5  and  C_6
REMARK    4  A    between atoms: C_6  and  N_7
REMARK    5  A    between atoms: N_7  and  C_8
REMARK    6  A    between atoms: C_8  and  C_9
REMARK    7  A    between atoms: C_12  and  C_13
REMARK    8  A    between atoms: N_21  and  C_22
REMARK    9  A    between atoms: C_25  and  O_26
REMARK   10  A    between atoms: O_26  and  C_27
REMARK   11  A    between atoms: C_27  and  C_28
REMARK                            x       y       z     vdW  Elec       q    Type
REMARK                         _______ _______ _______ _____ _____    ______ ____
ROOT
ATOM      1  C   UNL     1      -4.252   4.324   2.864  0.00  0.00    +0.000 A 
ATOM      2  C   UNL     1      -5.197   4.252   3.905  0.00  0.00    +0.000 A 
ATOM      3  C   UNL     1      -6.304   5.054   3.902  0.00  0.00    +0.000 A 
ATOM      4  C   UNL     1      -6.502   5.989   2.861  0.00  0.00    +0.000 A 
ATOM      5  N   UNL     1      -7.600   6.810   2.882  0.00  0.00    +0.000 NA
ATOM      6  C   UNL     1      -7.720   7.647   1.889  0.00  0.00    +0.000 A 
ATOM      7  N   UNL     1      -6.875   7.782   0.821  0.00  0.00    +0.000 NA
ATOM      8  C   UNL     1      -5.828   6.993   0.780  0.00  0.00    +0.000 A 
ATOM      9  N   UNL     1      -4.907   7.086  -0.362  0.00  0.00    +0.000 N 
ATOM     10  C   UNL     1      -5.558   6.049   1.812  0.00  0.00    +0.000 A 
ATOM     11  C   UNL     1      -4.428   5.199   1.830  0.00  0.00    +0.000 A 
ATOM     12  H   UNL     1      -4.089   6.479  -0.408  0.00  0.00    +0.000 HD
ENDROOT
BRANCH   9  13
ATOM     13  C   UNL     1      -5.167   8.053  -1.438  0.00  0.00    +0.000 A 
ATOM     14  C   UNL     1      -5.217   9.398  -1.108  0.00  0.00    +0.000 A 
ATOM     15  C   UNL     1      -5.293  10.365  -2.104  0.00  0.00    +0.000 A 
ATOM     16  C   UNL     1      -5.340   9.981  -3.440  0.00  0.00    +0.000 A 
ATOM     17  C   UNL     1      -5.320   8.631  -3.749  0.00  0.00    +0.000 A 
ATOM     18 CL   UNL     1      -5.397   8.163  -5.420  0.00  0.00    +0.000 Cl
ATOM     19  C   UNL     1      -5.204   7.652  -2.773  0.00  0.00    +0.000 A 
BRANCH  16  20
ATOM     20  O   UNL     1      -5.408  10.957  -4.470  0.00  0.00    +0.000 OA
BRANCH  20  21
ATOM     21  C   UNL     1      -5.456  10.551  -5.830  0.00  0.00    +0.000 C 
BRANCH  21  22
ATOM     22  C   UNL     1      -4.208   9.751  -6.164  0.00  0.00    +0.000 A 
ATOM     23  C   UNL     1      -4.307   8.373  -6.270  0.00  0.00    +0.000 A 
ATOM     24  C   UNL     1      -3.058   7.709  -6.296  0.00  0.00    +0.000 A 
ATOM     25  C   UNL     1      -1.904   8.293  -6.562  0.00  0.00    +0.000 A 
ATOM     26  C   UNL     1      -1.888   9.659  -6.507  0.00  0.00    +0.000 A 
ATOM     27  C   UNL     1      -3.051  10.374  -6.352  0.00  0.00    +0.000 A 
ENDBRANCH  21  22
ENDBRANCH  20  21
ENDBRANCH  16  20
ENDBRANCH   9  13
BRANCH   1  31
ATOM     28  C   UNL     1      -0.974   2.732   2.911  0.00  0.00    +0.000 A 
ATOM     29  C   UNL     1      -1.718   1.617   2.911  0.00  0.00    +0.000 A 
ATOM     30  C   UNL     1      -3.062   2.066   2.895  0.00  0.00    +0.000 A 
ATOM     31  C   UNL     1      -3.029   3.422   2.890  0.00  0.00    +0.000 A 
ATOM     32  O   UNL     1      -1.727   3.861   2.912  0.00  0.00    +0.000 OA
BRANCH  28  33
ATOM     33  C   UNL     1       0.546   2.732   2.911  0.00  0.00    +0.000 C 
BRANCH  33  34
ATOM     34  N   UNL     1       1.036   2.318   1.589  0.00  0.00    +0.000 NA
ATOM     35  H   UNL     1       0.696   1.379   1.379  0.00  0.00    +0.000 HD
BRANCH  34  36
ATOM     36  C   UNL     1       0.546   3.256   0.568  0.00  0.00    +0.000 C 
BRANCH  36  37
ATOM     37  C   UNL     1       1.052   2.827  -0.799  0.00  0.00    +0.000 C 
BRANCH  37  39
ATOM     38  C   UNL     1       1.052   0.007   0.085  0.00  0.00    +0.000 C 
ATOM     39  S   UNL     1       0.449   1.162  -1.171  0.00  0.00    +0.000 S 
ATOM     40  O   UNL     1       0.959   0.730  -2.548  0.00  0.00    +0.000 OA
ATOM     41  O   UNL     1      -1.081   1.162  -1.171  0.00  0.00    +0.000 OA
ENDBRANCH  37  39
ENDBRANCH  36  37
ENDBRANCH  34  36
ENDBRANCH  33  34
ENDBRANCH  28  33
ENDBRANCH   1  31
TORSDOF 10
