
 OpenBabel03132514253D

 33 35  0  0  0  0  0  0  0  0999 V2000
    1.0824   -0.0188    0.0535 C   0  0  0  0  0  0  0  0  0  0  0  0
    0.6090   -0.5896    1.2645 O   0  0  0  0  0  0  0  0  0  0  0  0
    0.7979   -1.9146    1.4584 C   0  0  0  0  0  0  0  0  0  0  0  0
    0.4609   -2.4302    2.6872 C   0  0  0  0  0  0  0  0  0  0  0  0
    0.6069   -3.7815    2.9343 C   0  0  0  0  0  0  0  0  0  0  0  0
    0.2133   -4.3501    4.2879 C   0  0  0  0  0  0  0  0  0  0  0  0
   -0.2653   -3.5557    5.2211 N   0  0  0  0  0  0  0  0  0  0  0  0
   -0.4142   -2.1672    4.9638 N   0  0  0  0  0  0  0  0  0  0  0  0
   -0.0335   -1.6173    3.6548 C   0  0  0  0  0  0  0  0  0  0  0  0
   -0.3853   -2.2271    2.5377 N   0  0  0  0  0  0  0  0  0  0  0  0
   -0.1162   -1.5922    1.3660 C   0  0  0  0  0  0  0  0  0  0  0  0
    0.4427   -0.4051    1.1763 N   0  0  0  0  0  0  0  0  0  0  0  0
    0.7682    0.1841    2.3378 C   0  0  0  0  0  0  0  0  0  0  0  0
    1.3219    1.4086    2.4866 N   0  0  0  0  0  0  0  0  0  0  0  0
    1.5169    1.6936    3.8129 N   0  0  0  0  0  0  0  0  0  0  0  0
    1.0987    0.6515    4.4676 C   0  0  0  0  0  0  0  0  0  0  0  0
    0.5905   -0.3581    3.6120 C   0  0  0  0  0  0  0  0  0  0  0  0
    1.1064   -4.6136    1.9620 C   0  0  0  0  0  0  0  0  0  0  0  0
    1.4756   -4.1036    0.7367 C   0  0  0  0  0  0  0  0  0  0  0  0
    1.3409   -2.7406    0.4526 C   0  0  0  0  0  0  0  0  0  0  0  0
    1.7367   -2.2080   -0.8028 O   0  0  0  0  0  0  0  0  0  0  0  0
    0.7257    0.9865   -0.0302 H   0  0  0  0  0  0  0  0  0  0  0  0
    0.7257   -0.5940   -0.7752 H   0  0  0  0  0  0  0  0  0  0  0  0
    2.1524   -0.0188    0.0535 H   0  0  0  0  0  0  0  0  0  0  0  0
    0.0851   -1.7843    3.4530 H   0  0  0  0  0  0  0  0  0  0  0  0
    0.3254   -5.3964    4.4818 H   0  0  0  0  0  0  0  0  0  0  0  0
   -0.7853   -1.5513    5.6873 H   0  0  0  0  0  0  0  0  0  0  0  0
   -0.3925   -2.1216    0.4781 H   0  0  0  0  0  0  0  0  0  0  0  0
    1.5616    2.0343    1.7175 H   0  0  0  0  0  0  0  0  0  0  0  0
    1.1342    0.5653    5.5335 H   0  0  0  0  0  0  0  0  0  0  0  0
    1.2089   -5.6607    2.1569 H   0  0  0  0  0  0  0  0  0  0  0  0
    1.8716   -4.7604   -0.0095 H   0  0  0  0  0  0  0  0  0  0  0  0
    1.6323   -1.2306   -0.9866 H   0  0  0  0  0  0  0  0  0  0  0  0
  1  2  1  0  0  0  0
  1 22  1  0  0  0  0
  1 23  1  0  0  0  0
  1 24  1  0  0  0  0
  2  3  1  0  0  0  0
  3  4  1  0  0  0  0
  3 20  2  0  0  0  0
  4  5  2  0  0  0  0
  4 25  1  0  0  0  0
  5  6  1  0  0  0  0
  5 18  1  0  0  0  0
  6  7  2  0  0  0  0
  6 26  1  0  0  0  0
  7  8  1  0  0  0  0
  8  9  1  0  0  0  0
  8 27  1  0  0  0  0
  9 10  1  0  0  0  0
  9 17  2  0  0  0  0
 10 11  2  0  0  0  0
 11 12  1  0  0  0  0
 11 28  1  0  0  0  0
 12 13  2  0  0  0  0
 13 14  1  0  0  0  0
 13 17  1  0  0  0  0
 14 15  1  0  0  0  0
 14 29  1  0  0  0  0
 15 16  2  0  0  0  0
 16 17  1  0  0  0  0
 16 30  1  0  0  0  0
 18 19  2  0  0  0  0
 18 31  1  0  0  0  0
 19 20  1  0  0  0  0
 19 32  1  0  0  0  0
 20 21  1  0  0  0  0
 21 33  1  0  0  0  0
M  END
