
 OpenBabel03132514253D

 69 73  0  0  0  0  0  0  0  0999 V2000
    0.9367   -0.0732   -0.0252 C   0  0  0  0  0  0  0  0  0  0  0  0
    0.3334   -1.3803    1.0720 S   0  0  0  0  0  0  0  0  0  0  0  0
    0.8435   -1.1294    2.4930 O   0  0  0  0  0  0  0  0  0  0  0  0
   -1.1971   -1.3803    1.0720 O   0  0  0  0  0  0  0  0  0  0  0  0
    0.9367   -2.9839    0.4886 C   0  0  0  0  0  0  0  0  0  0  0  0
    0.4300   -3.2330   -0.9226 C   0  0  0  0  0  0  0  0  0  0  0  0
    0.9200   -2.1715   -1.8137 N   0  0  0  0  0  0  0  0  0  0  0  0
    0.4301   -2.4125   -3.1785 C   0  0  0  0  0  0  0  0  0  0  0  0
   -1.0899   -2.4125   -3.1785 C   0  0  0  0  0  0  0  0  0  0  0  0
   -1.8336   -3.5278   -3.1790 C   0  0  0  0  0  0  0  0  0  0  0  0
   -3.1772   -3.0783   -3.1945 C   0  0  0  0  0  0  0  0  0  0  0  0
   -3.1444   -1.7222   -3.1998 C   0  0  0  0  0  0  0  0  0  0  0  0
   -4.3677   -0.8203   -3.2259 C   0  0  0  0  0  0  0  0  0  0  0  0
   -5.3123   -0.8925   -2.1842 C   0  0  0  0  0  0  0  0  0  0  0  0
   -6.4199   -0.0911   -2.1876 C   0  0  0  0  0  0  0  0  0  0  0  0
   -6.6171    0.8441   -3.2281 C   0  0  0  0  0  0  0  0  0  0  0  0
   -7.7154    1.6656   -3.2072 N   0  0  0  0  0  0  0  0  0  0  0  0
   -7.8354    2.5024   -4.2008 C   0  0  0  0  0  0  0  0  0  0  0  0
   -6.9902    2.6368   -5.2688 N   0  0  0  0  0  0  0  0  0  0  0  0
   -5.9436    1.8481   -5.3092 C   0  0  0  0  0  0  0  0  0  0  0  0
   -5.0230    1.9411   -6.4514 N   0  0  0  0  0  0  0  0  0  0  0  0
   -5.2823    2.9085   -7.5275 C   0  0  0  0  0  0  0  0  0  0  0  0
   -5.5770    2.3581   -8.7639 C   0  0  0  0  0  0  0  0  0  0  0  0
   -5.6570    3.3077   -9.8098 C   0  0  0  0  0  0  0  0  0  0  0  0
   -5.8076    4.6075   -9.6314 C   0  0  0  0  0  0  0  0  0  0  0  0
   -6.1974    5.4680  -10.6915 O   0  0  0  0  0  0  0  0  0  0  0  0
   -6.3480    6.8604  -10.4569 C   0  0  0  0  0  0  0  0  0  0  0  0
   -7.4110    7.0830   -9.3935 C   0  0  0  0  0  0  0  0  0  0  0  0
   -7.7499    8.3772   -9.0346 C   0  0  0  0  0  0  0  0  0  0  0  0
   -8.5078    8.4618   -7.8428 C   0  0  0  0  0  0  0  0  0  0  0  0
   -9.1570    7.4508   -7.2947 C   0  0  0  0  0  0  0  0  0  0  0  0
   -8.8252    6.2016   -7.7407 C   0  0  0  0  0  0  0  0  0  0  0  0
   -7.9878    6.0349   -8.8172 C   0  0  0  0  0  0  0  0  0  0  0  0
   -5.5679    5.0800   -8.3709 C   0  0  0  0  0  0  0  0  0  0  0  0
   -5.5405    6.5799   -8.1259 C   0  0  0  0  0  0  0  0  0  0  0  0
   -4.5866    7.1332   -8.8695 F   0  0  0  0  0  0  0  0  0  0  0  0
   -6.7181    7.1042   -8.4534 F   0  0  0  0  0  0  0  0  0  0  0  0
   -5.2927    6.8147   -6.8405 F   0  0  0  0  0  0  0  0  0  0  0  0
   -5.3515    4.2186   -7.3226 C   0  0  0  0  0  0  0  0  0  0  0  0
   -5.6732    0.9040   -4.2780 C   0  0  0  0  0  0  0  0  0  0  0  0
   -4.5435    0.0547   -4.2596 C   0  0  0  0  0  0  0  0  0  0  0  0
   -1.8423   -1.2842   -3.1781 O   0  0  0  0  0  0  0  0  0  0  0  0
    0.5800    0.8748    0.3197 H   0  0  0  0  0  0  0  0  0  0  0  0
    0.5800   -0.2486   -1.0186 H   0  0  0  0  0  0  0  0  0  0  0  0
    2.0067   -0.0732   -0.0252 H   0  0  0  0  0  0  0  0  0  0  0  0
    2.0067   -2.9839    0.4886 H   0  0  0  0  0  0  0  0  0  0  0  0
    0.5800   -3.7566    1.1372 H   0  0  0  0  0  0  0  0  0  0  0  0
    0.7867   -4.1811   -1.2675 H   0  0  0  0  0  0  0  0  0  0  0  0
   -0.6400   -3.2330   -0.9226 H   0  0  0  0  0  0  0  0  0  0  0  0
    0.5800   -1.2678   -1.4849 H   0  0  0  0  0  0  0  0  0  0  0  0
    0.7867   -1.6398   -3.8271 H   0  0  0  0  0  0  0  0  0  0  0  0
    0.7867   -3.3605   -3.5233 H   0  0  0  0  0  0  0  0  0  0  0  0
   -1.4870   -4.5400   -3.1696 H   0  0  0  0  0  0  0  0  0  0  0  0
   -4.0530   -3.6930   -3.2009 H   0  0  0  0  0  0  0  0  0  0  0  0
   -5.1615   -1.5827   -1.3805 H   0  0  0  0  0  0  0  0  0  0  0  0
   -7.1395   -0.1724   -1.3999 H   0  0  0  0  0  0  0  0  0  0  0  0
   -8.6848    3.1528   -4.1783 H   0  0  0  0  0  0  0  0  0  0  0  0
   -4.2043    1.3344   -6.4974 H   0  0  0  0  0  0  0  0  0  0  0  0
   -5.7302    1.3098   -8.9145 H   0  0  0  0  0  0  0  0  0  0  0  0
   -5.5910    2.9476  -10.8152 H   0  0  0  0  0  0  0  0  0  0  0  0
   -5.4173    7.2683  -10.1217 H   0  0  0  0  0  0  0  0  0  0  0  0
   -6.6438    7.3450  -11.3638 H   0  0  0  0  0  0  0  0  0  0  0  0
   -7.4645    9.2351   -9.6068 H   0  0  0  0  0  0  0  0  0  0  0  0
   -8.5585    9.4109   -7.3514 H   0  0  0  0  0  0  0  0  0  0  0  0
   -9.9026    7.6011   -6.5421 H   0  0  0  0  0  0  0  0  0  0  0  0
   -9.2234    5.3414   -7.2443 H   0  0  0  0  0  0  0  0  0  0  0  0
   -7.7987    5.0517   -9.1945 H   0  0  0  0  0  0  0  0  0  0  0  0
   -5.2378    4.6070   -6.3321 H   0  0  0  0  0  0  0  0  0  0  0  0
   -3.8277    0.0972   -5.0538 H   0  0  0  0  0  0  0  0  0  0  0  0
  1  2  1  0  0  0  0
  1 43  1  0  0  0  0
  1 44  1  0  0  0  0
  1 45  1  0  0  0  0
  2  3  2  0  0  0  0
  2  4  2  0  0  0  0
  2  5  1  0  0  0  0
  5  6  1  0  0  0  0
  5 46  1  0  0  0  0
  5 47  1  0  0  0  0
  6  7  1  0  0  0  0
  6 48  1  0  0  0  0
  6 49  1  0  0  0  0
  7  8  1  0  0  0  0
  7 50  1  0  0  0  0
  8  9  1  0  0  0  0
  8 51  1  0  0  0  0
  8 52  1  0  0  0  0
  9 10  2  0  0  0  0
  9 42  1  0  0  0  0
 10 11  1  0  0  0  0
 10 53  1  0  0  0  0
 11 12  2  0  0  0  0
 11 54  1  0  0  0  0
 12 13  1  0  0  0  0
 12 42  1  0  0  0  0
 13 14  1  0  0  0  0
 13 41  2  0  0  0  0
 14 15  2  0  0  0  0
 14 55  1  0  0  0  0
 15 16  1  0  0  0  0
 15 56  1  0  0  0  0
 16 17  1  0  0  0  0
 16 40  2  0  0  0  0
 17 18  2  0  0  0  0
 18 19  1  0  0  0  0
 18 57  1  0  0  0  0
 19 20  2  0  0  0  0
 20 21  1  0  0  0  0
 20 40  1  0  0  0  0
 21 22  1  0  0  0  0
 21 58  1  0  0  0  0
 22 23  1  0  0  0  0
 22 39  2  0  0  0  0
 23 24  2  0  0  0  0
 23 59  1  0  0  0  0
 24 25  1  0  0  0  0
 24 60  1  0  0  0  0
 25 26  1  0  0  0  0
 25 34  2  0  0  0  0
 26 27  1  0  0  0  0
 27 28  1  0  0  0  0
 27 61  1  0  0  0  0
 27 62  1  0  0  0  0
 28 29  1  0  0  0  0
 28 33  2  0  0  0  0
 29 30  2  0  0  0  0
 29 63  1  0  0  0  0
 30 31  1  0  0  0  0
 30 64  1  0  0  0  0
 31 32  2  0  0  0  0
 31 65  1  0  0  0  0
 32 33  1  0  0  0  0
 32 66  1  0  0  0  0
 33 67  1  0  0  0  0
 34 35  1  0  0  0  0
 34 39  1  0  0  0  0
 35 36  1  0  0  0  0
 35 37  1  0  0  0  0
 35 38  1  0  0  0  0
 39 68  1  0  0  0  0
 40 41  1  0  0  0  0
 41 69  1  0  0  0  0
M  END
