REMARK  Name = 
REMARK  7 active torsions:
REMARK  status: ('A' for Active; 'I' for Inactive)
REMARK    1  A    between atoms: C_2  and  C_4
REMARK    2  A    between atoms: C_8  and  C_9
REMARK    3  A    between atoms: N_14  and  C_15
REMARK    4  A    between atoms: C_15  and  C_16
REMARK    5  A    between atoms: C_16  and  C_17
REMARK    6  A    between atoms: C_17  and  O_18
REMARK    7  A    between atoms: C_20  and  C_21
REMARK                            x       y       z     vdW  Elec       q    Type
REMARK                         _______ _______ _______ _____ _____    ______ ____
ROOT
ATOM      1  C   UNL     1       1.059   1.985  -1.805  0.00  0.00    +0.000 A 
ATOM      2  C   UNL     1       2.103   1.456  -2.497  0.00  0.00    +0.000 A 
ATOM      3  C   UNL     1       2.927   2.229  -3.239  0.00  0.00    +0.000 A 
ATOM      4  C   UNL     1       2.719   3.609  -3.295  0.00  0.00    +0.000 A 
ATOM      5  C   UNL     1       3.330   4.635  -3.909  0.00  0.00    +0.000 A 
ATOM      6  C   UNL     1       2.688   5.744  -3.601  0.00  0.00    +0.000 A 
ATOM      7  N   UNL     1       1.668   5.482  -2.797  0.00  0.00    +0.000 NA
ATOM      8  N   UNL     1       1.632   4.170  -2.568  0.00  0.00    +0.000 N 
ATOM      9  C   UNL     1       0.803   3.311  -1.816  0.00  0.00    +0.000 A 
ENDROOT
BRANCH   5  10
ATOM     10  C   UNL     1       4.553   4.535  -4.806  0.00  0.00    +0.000 A 
ATOM     11  C   UNL     1       5.727   5.208  -4.487  0.00  0.00    +0.000 A 
ATOM     12  C   UNL     1       6.920   4.693  -5.041  0.00  0.00    +0.000 A 
ATOM     13  N   UNL     1       6.824   4.155  -6.324  0.00  0.00    +0.000 NA
ATOM     14  C   UNL     1       5.648   3.729  -6.735  0.00  0.00    +0.000 A 
ATOM     15  N   UNL     1       5.513   3.160  -8.084  0.00  0.00    +0.000 N 
ATOM     16  N   UNL     1       4.526   3.811  -5.904  0.00  0.00    +0.000 NA
ATOM     17  H   UNL     1       4.605   2.829  -8.409  0.00  0.00    +0.000 HD
BRANCH  15  18
ATOM     18  C   UNL     1       6.687   3.070  -8.964  0.00  0.00    +0.000 C 
BRANCH  18  19
ATOM     19  C   UNL     1       6.937   1.615  -9.329  0.00  0.00    +0.000 C 
BRANCH  19  20
ATOM     20  C   UNL     1       5.720   1.057 -10.048  0.00  0.00    +0.000 C 
BRANCH  20  21
ATOM     21  O   UNL     1       5.484   1.808 -11.230  0.00  0.00    +0.000 OA
ATOM     22  H   UNL     1       5.319   2.764 -10.991  0.00  0.00    +0.000 HD
ENDBRANCH  20  21
ENDBRANCH  19  20
ENDBRANCH  18  19
ENDBRANCH  15  18
ENDBRANCH   5  10
BRANCH   6  23
ATOM     23  C   UNL     1       3.065   7.130  -4.098  0.00  0.00    +0.000 A 
ATOM     24  C   UNL     1       3.076   7.397  -5.495  0.00  0.00    +0.000 A 
ATOM     25  C   UNL     1       3.794   8.503  -5.980  0.00  0.00    +0.000 A 
ATOM     26  C   UNL     1       4.209   9.420  -5.157  0.00  0.00    +0.000 A 
ATOM     27  F   UNL     1       4.897  10.462  -5.616  0.00  0.00    +0.000 F 
ATOM     28  C   UNL     1       3.933   9.312  -3.787  0.00  0.00    +0.000 A 
ATOM     29  C   UNL     1       3.488   8.077  -3.259  0.00  0.00    +0.000 A 
ENDBRANCH   6  23
BRANCH   1  31
ATOM     30  N   UNL     1       1.034   0.065  -0.067  0.00  0.00    +0.000 N 
ATOM     31  C   UNL     1       0.299   1.009  -0.922  0.00  0.00    +0.000 C 
ATOM     32  O   UNL     1      -0.972   1.009  -0.922  0.00  0.00    +0.000 OA
ATOM     33  H   UNL     1       0.524  -0.589   0.525  0.00  0.00    +0.000 HD
ATOM     34  H   UNL     1       2.054   0.065  -0.067  0.00  0.00    +0.000 HD
ENDBRANCH   1  31
TORSDOF 7
