REMARK  Name = 
REMARK  11 active torsions:
REMARK  status: ('A' for Active; 'I' for Inactive)
REMARK    1  A    between atoms: C_1  and  S_2
REMARK    2  A    between atoms: S_2  and  C_5
REMARK    3  A    between atoms: C_5  and  C_6
REMARK    4  A    between atoms: C_6  and  N_7
REMARK    5  A    between atoms: N_7  and  C_8
REMARK    6  A    between atoms: C_8  and  C_9
REMARK    7  A    between atoms: C_12  and  C_13
REMARK    8  A    between atoms: N_21  and  C_22
REMARK    9  A    between atoms: C_25  and  O_26
REMARK   10  A    between atoms: O_26  and  C_27
REMARK   11  A    between atoms: C_27  and  C_28
REMARK                            x       y       z     vdW  Elec       q    Type
REMARK                         _______ _______ _______ _____ _____    ______ ____
ROOT
ATOM      1  C   UNL     1      -4.366   4.842  -2.301  0.00  0.00    +0.000 A 
ATOM      2  C   UNL     1      -5.311   4.769  -1.260  0.00  0.00    +0.000 A 
ATOM      3  C   UNL     1      -6.418   5.571  -1.263  0.00  0.00    +0.000 A 
ATOM      4  C   UNL     1      -6.615   6.506  -2.304  0.00  0.00    +0.000 A 
ATOM      5  N   UNL     1      -7.714   7.327  -2.283  0.00  0.00    +0.000 NA
ATOM      6  C   UNL     1      -7.834   8.164  -3.276  0.00  0.00    +0.000 A 
ATOM      7  N   UNL     1      -6.989   8.299  -4.344  0.00  0.00    +0.000 NA
ATOM      8  C   UNL     1      -5.942   7.510  -4.385  0.00  0.00    +0.000 A 
ATOM      9  N   UNL     1      -5.021   7.603  -5.527  0.00  0.00    +0.000 N 
ATOM     10  C   UNL     1      -5.671   6.566  -3.353  0.00  0.00    +0.000 A 
ATOM     11  C   UNL     1      -4.542   5.717  -3.335  0.00  0.00    +0.000 A 
ATOM     12  H   UNL     1      -4.203   6.996  -5.573  0.00  0.00    +0.000 HD
ENDROOT
BRANCH   9  13
ATOM     13  C   UNL     1      -5.281   8.570  -6.603  0.00  0.00    +0.000 A 
ATOM     14  C   UNL     1      -5.346   9.938  -6.349  0.00  0.00    +0.000 A 
ATOM     15  C   UNL     1      -5.782  10.791  -7.333  0.00  0.00    +0.000 A 
ATOM     16  C   UNL     1      -6.128  10.313  -8.580  0.00  0.00    +0.000 A 
ATOM     17  C   UNL     1      -6.044   9.007  -8.822  0.00  0.00    +0.000 A 
ATOM     18 BR   UNL     1      -6.479   8.327 -10.537  0.00  0.00    +0.000 Br
ATOM     19  C   UNL     1      -5.623   8.097  -7.865  0.00  0.00    +0.000 A 
BRANCH  16  20
ATOM     20  O   UNL     1      -6.568  11.204  -9.594  0.00  0.00    +0.000 OA
BRANCH  20  21
ATOM     21  C   UNL     1      -6.922  10.703 -10.874  0.00  0.00    +0.000 C 
BRANCH  21  22
ATOM     22  C   UNL     1      -5.723  10.005 -11.495  0.00  0.00    +0.000 A 
ATOM     23  C   UNL     1      -5.784   8.631 -11.660  0.00  0.00    +0.000 A 
ATOM     24  C   UNL     1      -4.543   8.038 -11.993  0.00  0.00    +0.000 A 
ATOM     25  C   UNL     1      -3.500   8.697 -12.464  0.00  0.00    +0.000 A 
ATOM     26  C   UNL     1      -3.531  10.057 -12.332  0.00  0.00    +0.000 A 
ATOM     27  C   UNL     1      -4.662  10.699 -11.889  0.00  0.00    +0.000 A 
ENDBRANCH  21  22
ENDBRANCH  20  21
ENDBRANCH  16  20
ENDBRANCH   9  13
BRANCH   1  31
ATOM     28  C   UNL     1      -1.088   3.249  -2.254  0.00  0.00    +0.000 A 
ATOM     29  C   UNL     1      -1.832   2.134  -2.254  0.00  0.00    +0.000 A 
ATOM     30  C   UNL     1      -3.175   2.584  -2.270  0.00  0.00    +0.000 A 
ATOM     31  C   UNL     1      -3.143   3.940  -2.275  0.00  0.00    +0.000 A 
ATOM     32  O   UNL     1      -1.841   4.378  -2.253  0.00  0.00    +0.000 OA
BRANCH  28  33
ATOM     33  C   UNL     1       0.432   3.249  -2.254  0.00  0.00    +0.000 C 
BRANCH  33  34
ATOM     34  N   UNL     1       0.922   1.874  -2.082  0.00  0.00    +0.000 NA
ATOM     35  H   UNL     1       0.582   1.500  -1.196  0.00  0.00    +0.000 HD
BRANCH  34  36
ATOM     36  C   UNL     1       0.432   1.038  -3.187  0.00  0.00    +0.000 C 
BRANCH  36  37
ATOM     37  C   UNL     1       0.938  -0.384  -3.010  0.00  0.00    +0.000 C 
BRANCH  37  39
ATOM     38  C   UNL     1       0.938  -0.018  -0.077  0.00  0.00    +0.000 C 
ATOM     39  S   UNL     1       0.335  -1.048  -1.437  0.00  0.00    +0.000 S 
ATOM     40  O   UNL     1       0.845  -2.479  -1.259  0.00  0.00    +0.000 OA
ATOM     41  O   UNL     1      -1.195  -1.048  -1.437  0.00  0.00    +0.000 OA
ENDBRANCH  37  39
ENDBRANCH  36  37
ENDBRANCH  34  36
ENDBRANCH  33  34
ENDBRANCH  28  33
ENDBRANCH   1  31
TORSDOF 10
