
 OpenBabel03132514253D

 52 55  0  0  0  0  0  0  0  0999 V2000
    1.0796    0.0303    0.0524 C   0  0  0  0  0  0  0  0  0  0  0  0
    0.6063   -0.2373    1.3641 O   0  0  0  0  0  0  0  0  0  0  0  0
    0.9493   -1.4556    2.0080 C   0  0  0  0  0  0  0  0  0  0  0  0
   -0.0033   -2.0858    2.7916 C   0  0  0  0  0  0  0  0  0  0  0  0
    0.5365   -3.0050    3.7220 C   0  0  0  0  0  0  0  0  0  0  0  0
   -0.3149   -3.4198    4.8462 N   0  0  0  0  0  0  0  0  0  0  0  0
   -1.6768   -2.8816    4.9743 C   0  0  0  0  0  0  0  0  0  0  0  0
   -1.9464   -2.1959    6.0924 N   0  0  0  0  0  0  0  0  0  0  0  0
   -3.1928   -1.7036    6.1434 C   0  0  0  0  0  0  0  0  0  0  0  0
   -4.1271   -1.8934    5.1752 C   0  0  0  0  0  0  0  0  0  0  0  0
   -3.7432   -2.6428    4.0880 C   0  0  0  0  0  0  0  0  0  0  0  0
   -4.7309   -2.9119    3.0331 N   0  0  0  0  0  0  0  0  0  0  0  0
   -4.3523   -3.7097    1.8579 C   0  0  0  0  0  0  0  0  0  0  0  0
   -4.3277   -3.0253    0.6539 C   0  0  0  0  0  0  0  0  0  0  0  0
   -4.0971   -3.8521   -0.4709 C   0  0  0  0  0  0  0  0  0  0  0  0
   -3.5943   -5.0719   -0.4133 C   0  0  0  0  0  0  0  0  0  0  0  0
   -3.0838   -5.7383   -1.5836 C   0  0  0  0  0  0  0  0  0  0  0  0
   -3.1149   -5.0370   -2.9318 C   0  0  0  0  0  0  0  0  0  0  0  0
   -2.5616   -7.0254   -1.4800 N   0  0  0  0  0  0  0  0  0  0  0  0
   -3.2263   -7.0097    0.9269 N   0  0  0  0  0  0  0  0  0  0  0  0
   -3.5843   -5.6681    0.8171 C   0  0  0  0  0  0  0  0  0  0  0  0
   -3.9224   -4.9628    1.9468 C   0  0  0  0  0  0  0  0  0  0  0  0
   -2.5181   -3.1327    3.9523 N   0  0  0  0  0  0  0  0  0  0  0  0
    1.7521   -3.5162    3.6506 C   0  0  0  0  0  0  0  0  0  0  0  0
    2.6268   -2.8895    2.8071 C   0  0  0  0  0  0  0  0  0  0  0  0
    3.9938   -3.2737    2.8049 O   0  0  0  0  0  0  0  0  0  0  0  0
    4.9110   -2.6296    1.9330 C   0  0  0  0  0  0  0  0  0  0  0  0
    2.2021   -1.8933    1.9614 C   0  0  0  0  0  0  0  0  0  0  0  0
    3.1112   -1.3266    1.0293 O   0  0  0  0  0  0  0  0  0  0  0  0
    2.6791   -0.2967    0.1524 C   0  0  0  0  0  0  0  0  0  0  0  0
    0.7229    0.9871   -0.2672 H   0  0  0  0  0  0  0  0  0  0  0  0
    0.7230   -0.7249   -0.6165 H   0  0  0  0  0  0  0  0  0  0  0  0
    2.1496    0.0303    0.0524 H   0  0  0  0  0  0  0  0  0  0  0  0
   -1.0522   -1.8947    2.7015 H   0  0  0  0  0  0  0  0  0  0  0  0
    0.0393   -4.0810    5.5374 H   0  0  0  0  0  0  0  0  0  0  0  0
   -3.4689   -1.1252    7.0002 H   0  0  0  0  0  0  0  0  0  0  0  0
   -5.1112   -1.4809    5.2547 H   0  0  0  0  0  0  0  0  0  0  0  0
   -5.6790   -2.5450    3.1165 H   0  0  0  0  0  0  0  0  0  0  0  0
   -4.4701   -1.9673    0.5810 H   0  0  0  0  0  0  0  0  0  0  0  0
   -4.3476   -3.4620   -1.4353 H   0  0  0  0  0  0  0  0  0  0  0  0
   -2.1176   -4.9424   -3.3077 H   0  0  0  0  0  0  0  0  0  0  0  0
   -3.7020   -5.6103   -3.6185 H   0  0  0  0  0  0  0  0  0  0  0  0
   -3.5470   -4.0648   -2.8182 H   0  0  0  0  0  0  0  0  0  0  0  0
   -2.2001   -7.4973   -2.3088 H   0  0  0  0  0  0  0  0  0  0  0  0
   -3.8384   -5.4277    2.9069 H   0  0  0  0  0  0  0  0  0  0  0  0
    2.0371   -4.3747    4.2222 H   0  0  0  0  0  0  0  0  0  0  0  0
    4.6005   -2.7735    0.9192 H   0  0  0  0  0  0  0  0  0  0  0  0
    4.9371   -1.5828    2.1529 H   0  0  0  0  0  0  0  0  0  0  0  0
    5.8866   -3.0472    2.0698 H   0  0  0  0  0  0  0  0  0  0  0  0
    1.8774   -0.6596   -0.4563 H   0  0  0  0  0  0  0  0  0  0  0  0
    2.3407    0.5411    0.7255 H   0  0  0  0  0  0  0  0  0  0  0  0
    3.4935    0.0044   -0.4729 H   0  0  0  0  0  0  0  0  0  0  0  0
  1  2  1  0  0  0  0
  1 31  1  0  0  0  0
  1 32  1  0  0  0  0
  1 33  1  0  0  0  0
  2  3  1  0  0  0  0
  3  4  1  0  0  0  0
  3 28  2  0  0  0  0
  4  5  2  0  0  0  0
  4 34  1  0  0  0  0
  5  6  1  0  0  0  0
  5 24  1  0  0  0  0
  6  7  1  0  0  0  0
  6 35  1  0  0  0  0
  7  8  1  0  0  0  0
  7 23  2  0  0  0  0
  8  9  2  0  0  0  0
  9 10  1  0  0  0  0
  9 36  1  0  0  0  0
 10 11  2  0  0  0  0
 10 37  1  0  0  0  0
 11 12  1  0  0  0  0
 11 23  1  0  0  0  0
 12 13  1  0  0  0  0
 12 38  1  0  0  0  0
 13 14  1  0  0  0  0
 13 22  2  0  0  0  0
 14 15  2  0  0  0  0
 14 39  1  0  0  0  0
 15 16  1  0  0  0  0
 15 40  1  0  0  0  0
 16 17  2  0  0  0  0
 16 21  1  0  0  0  0
 17 18  1  0  0  0  0
 17 19  1  0  0  0  0
 18 41  1  0  0  0  0
 18 42  1  0  0  0  0
 18 43  1  0  0  0  0
 19 20  1  0  0  0  0
 19 44  1  0  0  0  0
 20 21  2  0  0  0  0
 21 22  1  0  0  0  0
 22 45  1  0  0  0  0
 24 25  2  0  0  0  0
 24 46  1  0  0  0  0
 25 26  1  0  0  0  0
 25 28  1  0  0  0  0
 26 27  1  0  0  0  0
 27 47  1  0  0  0  0
 27 48  1  0  0  0  0
 27 49  1  0  0  0  0
 28 29  1  0  0  0  0
 29 30  1  0  0  0  0
 30 50  1  0  0  0  0
 30 51  1  0  0  0  0
 30 52  1  0  0  0  0
M  END
