REMARK  Name = 
REMARK  10 active torsions:
REMARK  status: ('A' for Active; 'I' for Inactive)
REMARK    1  A    between atoms: C_1  and  O_2
REMARK    2  A    between atoms: O_2  and  C_3
REMARK    3  A    between atoms: C_5  and  N_6
REMARK    4  A    between atoms: C_11  and  N_12
REMARK    5  A    between atoms: N_12  and  C_13
REMARK    6  A    between atoms: C_17  and  C_18
REMARK    7  A    between atoms: C_25  and  O_26
REMARK    8  A    between atoms: O_26  and  C_27
REMARK    9  A    between atoms: C_28  and  O_29
REMARK   10  A    between atoms: O_29  and  C_30
REMARK                            x       y       z     vdW  Elec       q    Type
REMARK                         _______ _______ _______ _____ _____    ______ ____
ROOT
ATOM      1  N   UNL     1      -0.315  -3.420   4.846  0.00  0.00    +0.000 N 
ATOM      2  C   UNL     1      -1.677  -2.882   4.974  0.00  0.00    +0.000 A 
ATOM      3  N   UNL     1      -1.946  -2.196   6.092  0.00  0.00    +0.000 NA
ATOM      4  C   UNL     1      -3.193  -1.704   6.143  0.00  0.00    +0.000 A 
ATOM      5  C   UNL     1      -4.127  -1.893   5.175  0.00  0.00    +0.000 A 
ATOM      6  C   UNL     1      -3.743  -2.643   4.088  0.00  0.00    +0.000 A 
ATOM      7  N   UNL     1      -2.518  -3.133   3.952  0.00  0.00    +0.000 NA
ATOM      8  H   UNL     1       0.039  -4.081   5.537  0.00  0.00    +0.000 HD
ENDROOT
BRANCH   1  11
ATOM      9  C   UNL     1       0.949  -1.456   2.008  0.00  0.00    +0.000 A 
ATOM     10  C   UNL     1      -0.003  -2.086   2.792  0.00  0.00    +0.000 A 
ATOM     11  C   UNL     1       0.536  -3.005   3.722  0.00  0.00    +0.000 A 
ATOM     12  C   UNL     1       1.752  -3.516   3.651  0.00  0.00    +0.000 A 
ATOM     13  C   UNL     1       2.627  -2.889   2.807  0.00  0.00    +0.000 A 
ATOM     14  C   UNL     1       2.202  -1.893   1.961  0.00  0.00    +0.000 A 
BRANCH   9  16
ATOM     15  C   UNL     1       1.080   0.030   0.052  0.00  0.00    +0.000 C 
ATOM     16  O   UNL     1       0.606  -0.237   1.364  0.00  0.00    +0.000 OA
ENDBRANCH   9  16
BRANCH  13  17
ATOM     17  O   UNL     1       3.994  -3.274   2.805  0.00  0.00    +0.000 OA
ATOM     18  C   UNL     1       4.911  -2.630   1.933  0.00  0.00    +0.000 C 
ENDBRANCH  13  17
BRANCH  14  19
ATOM     19  O   UNL     1       3.111  -1.327   1.029  0.00  0.00    +0.000 OA
ATOM     20  C   UNL     1       2.679  -0.297   0.152  0.00  0.00    +0.000 C 
ENDBRANCH  14  19
ENDBRANCH   1  11
BRANCH   6  21
ATOM     21  N   UNL     1      -4.731  -2.912   3.033  0.00  0.00    +0.000 N 
ATOM     22  H   UNL     1      -5.679  -2.545   3.116  0.00  0.00    +0.000 HD
BRANCH  21  23
ATOM     23  C   UNL     1      -4.352  -3.710   1.858  0.00  0.00    +0.000 A 
ATOM     24  C   UNL     1      -4.328  -3.025   0.654  0.00  0.00    +0.000 A 
ATOM     25  C   UNL     1      -4.097  -3.852  -0.471  0.00  0.00    +0.000 A 
ATOM     26  C   UNL     1      -3.594  -5.072  -0.413  0.00  0.00    +0.000 A 
ATOM     27  C   UNL     1      -3.084  -5.738  -1.584  0.00  0.00    +0.000 A 
ATOM     28  C   UNL     1      -3.115  -5.037  -2.932  0.00  0.00    +0.000 C 
ATOM     29  N   UNL     1      -2.562  -7.025  -1.480  0.00  0.00    +0.000 N 
ATOM     30  N   UNL     1      -3.226  -7.010   0.927  0.00  0.00    +0.000 NA
ATOM     31  C   UNL     1      -3.584  -5.668   0.817  0.00  0.00    +0.000 A 
ATOM     32  C   UNL     1      -3.922  -4.963   1.947  0.00  0.00    +0.000 A 
ATOM     33  H   UNL     1      -2.200  -7.497  -2.309  0.00  0.00    +0.000 HD
ENDBRANCH  21  23
ENDBRANCH   6  21
TORSDOF 6
