REMARK  Name = 
REMARK  14 active torsions:
REMARK  status: ('A' for Active; 'I' for Inactive)
REMARK    1  A    between atoms: C_1  and  C_2
REMARK    2  A    between atoms: C_2  and  C_3
REMARK    3  A    between atoms: C_3  and  N_4
REMARK    4  A    between atoms: N_4  and  C_5
REMARK    5  A    between atoms: N_4  and  C_11
REMARK    6  A    between atoms: C_5  and  C_6
REMARK    7  A    between atoms: C_6  and  S_7
REMARK    8  A    between atoms: S_7  and  C_8
REMARK    9  A    between atoms: C_11  and  C_12
REMARK   10  A    between atoms: C_15  and  C_16
REMARK   11  A    between atoms: N_24  and  C_25
REMARK   12  A    between atoms: C_28  and  O_29
REMARK   13  A    between atoms: O_29  and  C_30
REMARK   14  A    between atoms: C_30  and  C_31
REMARK                            x       y       z     vdW  Elec       q    Type
REMARK                         _______ _______ _______ _____ _____    ______ ____
ROOT
ATOM      1  C   UNL     1       5.808  -2.525   2.330  0.00  0.00    +0.000 A 
ATOM      2  C   UNL     1       6.752  -2.443   3.371  0.00  0.00    +0.000 A 
ATOM      3  C   UNL     1       7.860  -3.245   3.375  0.00  0.00    +0.000 A 
ATOM      4  C   UNL     1       8.057  -4.190   2.343  0.00  0.00    +0.000 A 
ATOM      5  N   UNL     1       9.155  -5.011   2.371  0.00  0.00    +0.000 NA
ATOM      6  C   UNL     1       9.274  -5.857   1.385  0.00  0.00    +0.000 A 
ATOM      7  N   UNL     1       8.429  -6.001   0.318  0.00  0.00    +0.000 NA
ATOM      8  C   UNL     1       7.383  -5.212   0.271  0.00  0.00    +0.000 A 
ATOM      9  N   UNL     1       6.462  -5.315  -0.871  0.00  0.00    +0.000 N 
ATOM     10  C   UNL     1       7.113  -4.259   1.294  0.00  0.00    +0.000 A 
ATOM     11  C   UNL     1       5.983  -3.409   1.304  0.00  0.00    +0.000 A 
ATOM     12  H   UNL     1       5.644  -4.708  -0.922  0.00  0.00    +0.000 HD
ENDROOT
BRANCH   9  13
ATOM     13  C   UNL     1       6.721  -6.292  -1.938  0.00  0.00    +0.000 A 
ATOM     14  C   UNL     1       6.771  -7.633  -1.595  0.00  0.00    +0.000 A 
ATOM     15  C   UNL     1       6.847  -8.610  -2.583  0.00  0.00    +0.000 A 
ATOM     16  C   UNL     1       6.894  -8.238  -3.922  0.00  0.00    +0.000 A 
ATOM     17  C   UNL     1       6.875  -6.891  -4.243  0.00  0.00    +0.000 A 
ATOM     18 CL   UNL     1       6.952  -6.438  -5.918  0.00  0.00    +0.000 Cl
ATOM     19  C   UNL     1       6.759  -5.903  -3.276  0.00  0.00    +0.000 A 
BRANCH  16  20
ATOM     20  O   UNL     1       6.962  -9.223  -4.943  0.00  0.00    +0.000 OA
BRANCH  20  21
ATOM     21  C   UNL     1       7.010  -8.830  -6.306  0.00  0.00    +0.000 C 
BRANCH  21  22
ATOM     22  C   UNL     1       5.762  -8.032  -6.648  0.00  0.00    +0.000 A 
ATOM     23  C   UNL     1       4.600  -8.670  -6.970  0.00  0.00    +0.000 A 
ATOM     24  C   UNL     1       3.486  -7.911  -7.296  0.00  0.00    +0.000 A 
ATOM     25  C   UNL     1       3.552  -6.526  -7.306  0.00  0.00    +0.000 A 
ATOM     26  C   UNL     1       4.717  -5.947  -6.965  0.00  0.00    +0.000 A 
ATOM     27  F   UNL     1       4.786  -4.592  -6.970  0.00  0.00    +0.000 F 
ATOM     28  C   UNL     1       5.827  -6.647  -6.636  0.00  0.00    +0.000 A 
ENDBRANCH  21  22
ENDBRANCH  20  21
ENDBRANCH  16  20
ENDBRANCH   9  13
BRANCH   1  32
ATOM     29  C   UNL     1       2.530  -0.932   2.364  0.00  0.00    +0.000 A 
ATOM     30  C   UNL     1       3.274   0.183   2.354  0.00  0.00    +0.000 A 
ATOM     31  C   UNL     1       4.617  -0.266   2.342  0.00  0.00    +0.000 A 
ATOM     32  C   UNL     1       4.585  -1.622   2.349  0.00  0.00    +0.000 A 
ATOM     33  O   UNL     1       3.282  -2.060   2.374  0.00  0.00    +0.000 OA
BRANCH  29  34
ATOM     34  C   UNL     1       1.010  -0.932   2.364  0.00  0.00    +0.000 C 
BRANCH  34  35
ATOM     35  N   UNL     1       0.520  -2.233   1.887  0.00  0.00    +0.000 NA
BRANCH  35  36
ATOM     36  C   UNL     1       1.010  -2.470   0.521  0.00  0.00    +0.000 C 
BRANCH  36  38
ATOM     37  C   UNL     1       1.010  -0.025   0.096  0.00  0.00    +0.000 C 
ATOM     38  C   UNL     1       0.503  -1.370  -0.397  0.00  0.00    +0.000 C 
ENDBRANCH  36  38
ENDBRANCH  35  36
BRANCH  35  39
ATOM     39  C   UNL     1       1.010  -3.297   2.775  0.00  0.00    +0.000 C 
BRANCH  39  40
ATOM     40  C   UNL     1       2.530  -3.297   2.775  0.00  0.00    +0.000 C 
BRANCH  40  41
ATOM     41  S   UNL     1       3.133  -1.695   3.362  0.00  0.00    +0.000 S 
ATOM     42  C   UNL     1       2.530  -1.403   5.044  0.00  0.00    +0.000 C 
ATOM     43  O   UNL     1       4.664  -1.695   3.362  0.00  0.00    +0.000 OA
ATOM     44  O   UNL     1       2.623  -0.587   2.438  0.00  0.00    +0.000 OA
ENDBRANCH  40  41
ENDBRANCH  39  40
ENDBRANCH  35  39
ENDBRANCH  34  35
ENDBRANCH  29  34
ENDBRANCH   1  32
TORSDOF 12
