
 OpenBabel03132514253D

 42 44  0  0  0  0  0  0  0  0999 V2000
    1.0768    0.0303    0.0563 C   0  0  0  0  0  0  0  0  0  0  0  0
    0.6035    0.6110   -1.1500 O   0  0  0  0  0  0  0  0  0  0  0  0
    0.1311   -0.1501   -2.1632 C   0  0  0  0  0  0  0  0  0  0  0  0
   -0.1696    0.4834   -3.3453 C   0  0  0  0  0  0  0  0  0  0  0  0
   -0.6305   -0.2465   -4.4238 C   0  0  0  0  0  0  0  0  0  0  0  0
   -0.9418    0.4558   -5.7354 C   0  0  0  0  0  0  0  0  0  0  0  0
   -0.7720    1.7561   -5.8418 N   0  0  0  0  0  0  0  0  0  0  0  0
   -0.2980    2.5034   -4.7313 N   0  0  0  0  0  0  0  0  0  0  0  0
    0.0030    1.8243   -3.4629 C   0  0  0  0  0  0  0  0  0  0  0  0
    0.7106    0.6435   -3.4359 N   0  0  0  0  0  0  0  0  0  0  0  0
    1.1109    0.0851   -2.2217 C   0  0  0  0  0  0  0  0  0  0  0  0
    0.8115    0.7177   -1.0315 N   0  0  0  0  0  0  0  0  0  0  0  0
    0.0977    1.9197   -1.0481 C   0  0  0  0  0  0  0  0  0  0  0  0
   -0.3083    2.4749   -2.2744 C   0  0  0  0  0  0  0  0  0  0  0  0
   -0.9809    3.6422   -1.9758 C   0  0  0  0  0  0  0  0  0  0  0  0
   -0.9963    3.8146   -0.5884 N   0  0  0  0  0  0  0  0  0  0  0  0
   -0.3764    2.8298   -0.0067 N   0  0  0  0  0  0  0  0  0  0  0  0
   -0.1864    2.6618    1.4412 C   0  0  0  0  0  0  0  0  0  0  0  0
    0.5903    3.8470    1.9912 C   0  0  0  0  0  0  0  0  0  0  0  0
   -1.5420    2.5835    2.1244 C   0  0  0  0  0  0  0  0  0  0  0  0
   -0.8089   -1.6045   -4.3159 C   0  0  0  0  0  0  0  0  0  0  0  0
   -0.5394   -2.2461   -3.1270 C   0  0  0  0  0  0  0  0  0  0  0  0
   -0.0711   -1.5379   -2.0154 C   0  0  0  0  0  0  0  0  0  0  0  0
    0.1911   -2.1925   -0.7829 O   0  0  0  0  0  0  0  0  0  0  0  0
    0.7202   -0.9756    0.1319 H   0  0  0  0  0  0  0  0  0  0  0  0
    0.7202    0.5988    0.8897 H   0  0  0  0  0  0  0  0  0  0  0  0
    2.1468    0.0303    0.0563 H   0  0  0  0  0  0  0  0  0  0  0  0
   -0.0464    1.5429   -3.4304 H   0  0  0  0  0  0  0  0  0  0  0  0
   -1.2990   -0.1074   -6.5722 H   0  0  0  0  0  0  0  0  0  0  0  0
   -0.1664    3.5115   -4.8138 H   0  0  0  0  0  0  0  0  0  0  0  0
    1.6523   -0.8378   -2.2128 H   0  0  0  0  0  0  0  0  0  0  0  0
   -1.4194    4.3074   -2.6900 H   0  0  0  0  0  0  0  0  0  0  0  0
    0.3593    1.7604    1.6271 H   0  0  0  0  0  0  0  0  0  0  0  0
    0.0446    4.7484    1.8053 H   0  0  0  0  0  0  0  0  0  0  0  0
    0.7286    3.7247    3.0452 H   0  0  0  0  0  0  0  0  0  0  0  0
    1.5446    3.9021    1.5103 H   0  0  0  0  0  0  0  0  0  0  0  0
   -2.0888    1.7492    1.7373 H   0  0  0  0  0  0  0  0  0  0  0  0
   -1.4037    2.4612    3.1784 H   0  0  0  0  0  0  0  0  0  0  0  0
   -2.0877    3.4849    1.9385 H   0  0  0  0  0  0  0  0  0  0  0  0
   -1.1580   -2.1653   -5.1577 H   0  0  0  0  0  0  0  0  0  0  0  0
   -0.6906   -3.3027   -3.0528 H   0  0  0  0  0  0  0  0  0  0  0  0
    0.5255   -1.6685    0.0004 H   0  0  0  0  0  0  0  0  0  0  0  0
  1  2  1  0  0  0  0
  1 25  1  0  0  0  0
  1 26  1  0  0  0  0
  1 27  1  0  0  0  0
  2  3  1  0  0  0  0
  3  4  1  0  0  0  0
  3 23  2  0  0  0  0
  4  5  2  0  0  0  0
  4 28  1  0  0  0  0
  5  6  1  0  0  0  0
  5 21  1  0  0  0  0
  6  7  2  0  0  0  0
  6 29  1  0  0  0  0
  7  8  1  0  0  0  0
  8  9  1  0  0  0  0
  8 30  1  0  0  0  0
  9 10  1  0  0  0  0
  9 14  2  0  0  0  0
 10 11  2  0  0  0  0
 11 12  1  0  0  0  0
 11 31  1  0  0  0  0
 12 13  2  0  0  0  0
 13 14  1  0  0  0  0
 13 17  1  0  0  0  0
 14 15  1  0  0  0  0
 15 16  2  0  0  0  0
 15 32  1  0  0  0  0
 16 17  1  0  0  0  0
 17 18  1  0  0  0  0
 18 19  1  0  0  0  0
 18 20  1  0  0  0  0
 18 33  1  0  0  0  0
 19 34  1  0  0  0  0
 19 35  1  0  0  0  0
 19 36  1  0  0  0  0
 20 37  1  0  0  0  0
 20 38  1  0  0  0  0
 20 39  1  0  0  0  0
 21 22  2  0  0  0  0
 21 40  1  0  0  0  0
 22 23  1  0  0  0  0
 22 41  1  0  0  0  0
 23 24  1  0  0  0  0
 24 42  1  0  0  0  0
M  END
