REMARK  Name = 
REMARK  9 active torsions:
REMARK  status: ('A' for Active; 'I' for Inactive)
REMARK    1  A    between atoms: C_1  and  O_2
REMARK    2  A    between atoms: O_2  and  C_3
REMARK    3  A    between atoms: C_5  and  C_6
REMARK    4  A    between atoms: N_7  and  N_8
REMARK    5  A    between atoms: N_8  and  C_9
REMARK    6  A    between atoms: N_17  and  C_18
REMARK    7  A    between atoms: C_18  and  C_19
REMARK    8  A    between atoms: C_18  and  C_20
REMARK    9  A    between atoms: C_23  and  O_24
REMARK                            x       y       z     vdW  Elec       q    Type
REMARK                         _______ _______ _______ _____ _____    ______ ____
ROOT
ATOM      1  N   UNL     1      -0.298   2.503  -4.731  0.00  0.00    +0.000 N 
ATOM      2  H   UNL     1      -0.166   3.511  -4.814  0.00  0.00    +0.000 HD
ENDROOT
BRANCH   1   3
ATOM      3  C   UNL     1       0.003   1.824  -3.463  0.00  0.00    +0.000 A 
ATOM      4  N   UNL     1       0.711   0.643  -3.436  0.00  0.00    +0.000 NA
ATOM      5  C   UNL     1       1.111   0.085  -2.222  0.00  0.00    +0.000 A 
ATOM      6  N   UNL     1       0.811   0.718  -1.032  0.00  0.00    +0.000 NA
ATOM      7  C   UNL     1       0.098   1.920  -1.048  0.00  0.00    +0.000 A 
ATOM      8  C   UNL     1      -0.308   2.475  -2.274  0.00  0.00    +0.000 A 
ATOM      9  C   UNL     1      -0.981   3.642  -1.976  0.00  0.00    +0.000 A 
ATOM     10  N   UNL     1      -0.996   3.815  -0.588  0.00  0.00    +0.000 NA
ATOM     11  N   UNL     1      -0.376   2.830  -0.007  0.00  0.00    +0.000 N 
BRANCH  11  12
ATOM     12  C   UNL     1      -0.186   2.662   1.441  0.00  0.00    +0.000 C 
ATOM     13  C   UNL     1       0.590   3.847   1.991  0.00  0.00    +0.000 C 
ATOM     14  C   UNL     1      -1.542   2.583   2.124  0.00  0.00    +0.000 C 
ENDBRANCH  11  12
ENDBRANCH   1   3
BRANCH   1  16
ATOM     15  C   UNL     1      -0.942   0.456  -5.735  0.00  0.00    +0.000 C 
ATOM     16  N   UNL     1      -0.772   1.756  -5.842  0.00  0.00    +0.000 NA
BRANCH  15  19
ATOM     17  C   UNL     1       0.131  -0.150  -2.163  0.00  0.00    +0.000 A 
ATOM     18  C   UNL     1      -0.170   0.483  -3.345  0.00  0.00    +0.000 A 
ATOM     19  C   UNL     1      -0.630  -0.246  -4.424  0.00  0.00    +0.000 A 
ATOM     20  C   UNL     1      -0.809  -1.605  -4.316  0.00  0.00    +0.000 A 
ATOM     21  C   UNL     1      -0.539  -2.246  -3.127  0.00  0.00    +0.000 A 
ATOM     22  C   UNL     1      -0.071  -1.538  -2.015  0.00  0.00    +0.000 A 
BRANCH  17  24
ATOM     23  C   UNL     1       1.077   0.030   0.056  0.00  0.00    +0.000 C 
ATOM     24  O   UNL     1       0.604   0.611  -1.150  0.00  0.00    +0.000 OA
ENDBRANCH  17  24
BRANCH  22  25
ATOM     25  O   UNL     1       0.191  -2.192  -0.783  0.00  0.00    +0.000 OA
ATOM     26  H   UNL     1       0.525  -1.669   0.000  0.00  0.00    +0.000 HD
ENDBRANCH  22  25
ENDBRANCH  15  19
ENDBRANCH   1  16
TORSDOF 6
