
 OpenBabel03132514253D

 41 44  0  0  0  0  0  0  0  0999 V2000
    0.9719   -0.0421    0.0862 C   0  0  0  0  0  0  0  0  0  0  0  0
    0.4986   -1.2920    0.5659 O   0  0  0  0  0  0  0  0  0  0  0  0
    0.8416   -2.4899   -0.1151 C   0  0  0  0  0  0  0  0  0  0  0  0
   -0.2314   -3.3188   -0.3981 C   0  0  0  0  0  0  0  0  0  0  0  0
    0.1414   -4.5866   -0.9039 C   0  0  0  0  0  0  0  0  0  0  0  0
    1.3264   -4.8711   -1.4126 C   0  0  0  0  0  0  0  0  0  0  0  0
    1.5628   -6.1239   -2.2403 C   0  0  0  0  0  0  0  0  0  0  0  0
    2.4882   -7.0605   -1.8236 C   0  0  0  0  0  0  0  0  0  0  0  0
    2.8184   -8.1232   -2.6683 C   0  0  0  0  0  0  0  0  0  0  0  0
    3.8461   -9.1651   -2.2576 C   0  0  0  0  0  0  0  0  0  0  0  0
    5.0323   -9.4669   -2.9627 C   0  0  0  0  0  0  0  0  0  0  0  0
    5.7072  -10.4315   -2.3598 N   0  0  0  0  0  0  0  0  0  0  0  0
    4.9500  -10.7568   -1.2697 N   0  0  0  0  0  0  0  0  0  0  0  0
    3.8240   -9.9956   -1.1968 C   0  0  0  0  0  0  0  0  0  0  0  0
    2.7487  -10.0685   -0.1250 C   0  0  0  0  0  0  0  0  0  0  0  0
    1.4549  -10.3695   -0.5025 C   0  0  0  0  0  0  0  0  0  0  0  0
    0.4503  -10.4199    0.4672 C   0  0  0  0  0  0  0  0  0  0  0  0
    0.8149  -10.1785    1.7857 C   0  0  0  0  0  0  0  0  0  0  0  0
    2.1325   -9.9098    2.0778 C   0  0  0  0  0  0  0  0  0  0  0  0
    3.0938   -9.8393    1.1517 N   0  0  0  0  0  0  0  0  0  0  0  0
    2.1740   -8.1938   -3.8970 C   0  0  0  0  0  0  0  0  0  0  0  0
    1.2463   -7.2311   -4.2230 C   0  0  0  0  0  0  0  0  0  0  0  0
    0.9422   -6.2006   -3.4280 N   0  0  0  0  0  0  0  0  0  0  0  0
    2.3292   -3.9782   -1.1548 C   0  0  0  0  0  0  0  0  0  0  0  0
    2.0647   -2.7748   -0.5466 C   0  0  0  0  0  0  0  0  0  0  0  0
    0.6153    0.7418    0.7212 H   0  0  0  0  0  0  0  0  0  0  0  0
    0.6153    0.1158   -0.9101 H   0  0  0  0  0  0  0  0  0  0  0  0
    2.0419   -0.0421    0.0862 H   0  0  0  0  0  0  0  0  0  0  0  0
   -1.2498   -3.0269   -0.2479 H   0  0  0  0  0  0  0  0  0  0  0  0
   -0.5876   -5.3693   -0.8719 H   0  0  0  0  0  0  0  0  0  0  0  0
    2.9485   -6.9730   -0.8617 H   0  0  0  0  0  0  0  0  0  0  0  0
    5.3431   -8.9805   -3.8636 H   0  0  0  0  0  0  0  0  0  0  0  0
    5.1979  -11.4801   -0.5946 H   0  0  0  0  0  0  0  0  0  0  0  0
    1.2237  -10.5626   -1.5292 H   0  0  0  0  0  0  0  0  0  0  0  0
   -0.5638  -10.6367    0.2036 H   0  0  0  0  0  0  0  0  0  0  0  0
    0.0809  -10.2012    2.5639 H   0  0  0  0  0  0  0  0  0  0  0  0
    2.4019   -9.7488    3.1007 H   0  0  0  0  0  0  0  0  0  0  0  0
    2.3961   -8.9862   -4.5808 H   0  0  0  0  0  0  0  0  0  0  0  0
    0.7416   -7.3119   -5.1630 H   0  0  0  0  0  0  0  0  0  0  0  0
    3.3343   -4.2200   -1.4307 H   0  0  0  0  0  0  0  0  0  0  0  0
    2.8514   -2.0608   -0.4196 H   0  0  0  0  0  0  0  0  0  0  0  0
  1  2  1  0  0  0  0
  1 26  1  0  0  0  0
  1 27  1  0  0  0  0
  1 28  1  0  0  0  0
  2  3  1  0  0  0  0
  3  4  1  0  0  0  0
  3 25  2  0  0  0  0
  4  5  2  0  0  0  0
  4 29  1  0  0  0  0
  5  6  1  0  0  0  0
  5 30  1  0  0  0  0
  6  7  1  0  0  0  0
  6 24  2  0  0  0  0
  7  8  1  0  0  0  0
  7 23  2  0  0  0  0
  8  9  2  0  0  0  0
  8 31  1  0  0  0  0
  9 10  1  0  0  0  0
  9 21  1  0  0  0  0
 10 11  1  0  0  0  0
 10 14  2  0  0  0  0
 11 12  2  0  0  0  0
 11 32  1  0  0  0  0
 12 13  1  0  0  0  0
 13 14  1  0  0  0  0
 13 33  1  0  0  0  0
 14 15  1  0  0  0  0
 15 16  1  0  0  0  0
 15 20  2  0  0  0  0
 16 17  2  0  0  0  0
 16 34  1  0  0  0  0
 17 18  1  0  0  0  0
 17 35  1  0  0  0  0
 18 19  2  0  0  0  0
 18 36  1  0  0  0  0
 19 20  1  0  0  0  0
 19 37  1  0  0  0  0
 21 22  2  0  0  0  0
 21 38  1  0  0  0  0
 22 23  1  0  0  0  0
 22 39  1  0  0  0  0
 24 25  1  0  0  0  0
 24 40  1  0  0  0  0
 25 41  1  0  0  0  0
M  END
