REMARK  Name = 
REMARK  5 active torsions:
REMARK  status: ('A' for Active; 'I' for Inactive)
REMARK    1  A    between atoms: C_1  and  O_2
REMARK    2  A    between atoms: O_2  and  C_3
REMARK    3  A    between atoms: C_6  and  C_7
REMARK    4  A    between atoms: C_9  and  C_10
REMARK    5  A    between atoms: C_14  and  C_15
REMARK                            x       y       z     vdW  Elec       q    Type
REMARK                         _______ _______ _______ _____ _____    ______ ____
ROOT
ATOM      1  C   UNL     1       1.563  -6.124  -2.240  0.00  0.00    +0.000 A 
ATOM      2  C   UNL     1       2.488  -7.061  -1.824  0.00  0.00    +0.000 A 
ATOM      3  C   UNL     1       2.818  -8.123  -2.668  0.00  0.00    +0.000 A 
ATOM      4  C   UNL     1       2.174  -8.194  -3.897  0.00  0.00    +0.000 A 
ATOM      5  C   UNL     1       1.246  -7.231  -4.223  0.00  0.00    +0.000 A 
ATOM      6  N   UNL     1       0.942  -6.201  -3.428  0.00  0.00    +0.000 NA
ENDROOT
BRANCH   1  10
ATOM      7  C   UNL     1       0.842  -2.490  -0.115  0.00  0.00    +0.000 A 
ATOM      8  C   UNL     1      -0.231  -3.319  -0.398  0.00  0.00    +0.000 A 
ATOM      9  C   UNL     1       0.141  -4.587  -0.904  0.00  0.00    +0.000 A 
ATOM     10  C   UNL     1       1.326  -4.871  -1.413  0.00  0.00    +0.000 A 
ATOM     11  C   UNL     1       2.329  -3.978  -1.155  0.00  0.00    +0.000 A 
ATOM     12  C   UNL     1       2.065  -2.775  -0.547  0.00  0.00    +0.000 A 
BRANCH   7  14
ATOM     13  C   UNL     1       0.972  -0.042   0.086  0.00  0.00    +0.000 C 
ATOM     14  O   UNL     1       0.499  -1.292   0.566  0.00  0.00    +0.000 OA
ENDBRANCH   7  14
ENDBRANCH   1  10
BRANCH   3  15
ATOM     15  C   UNL     1       3.846  -9.165  -2.258  0.00  0.00    +0.000 A 
ATOM     16  C   UNL     1       5.032  -9.467  -2.963  0.00  0.00    +0.000 A 
ATOM     17  N   UNL     1       5.707 -10.431  -2.360  0.00  0.00    +0.000 NA
ATOM     18  N   UNL     1       4.950 -10.757  -1.270  0.00  0.00    +0.000 N 
ATOM     19  C   UNL     1       3.824  -9.996  -1.197  0.00  0.00    +0.000 A 
ATOM     20  H   UNL     1       5.198 -11.480  -0.595  0.00  0.00    +0.000 HD
BRANCH  19  21
ATOM     21  C   UNL     1       2.749 -10.069  -0.125  0.00  0.00    +0.000 A 
ATOM     22  C   UNL     1       1.455 -10.370  -0.502  0.00  0.00    +0.000 A 
ATOM     23  C   UNL     1       0.450 -10.420   0.467  0.00  0.00    +0.000 A 
ATOM     24  C   UNL     1       0.815 -10.178   1.786  0.00  0.00    +0.000 A 
ATOM     25  C   UNL     1       2.132  -9.910   2.078  0.00  0.00    +0.000 A 
ATOM     26  N   UNL     1       3.094  -9.839   1.152  0.00  0.00    +0.000 NA
ENDBRANCH  19  21
ENDBRANCH   3  15
TORSDOF 4
