
 OpenBabel03132514253D

 51 54  0  0  0  0  0  0  0  0999 V2000
    1.0720   -0.0680    0.0139 C   0  0  0  0  0  0  0  0  0  0  0  0
    0.5653   -0.2556    1.4347 C   0  0  0  0  0  0  0  0  0  0  0  0
    0.1910    0.7236    2.2738 C   0  0  0  0  0  0  0  0  0  0  0  0
    0.1019    2.1144    2.1884 C   0  0  0  0  0  0  0  0  0  0  0  0
   -0.3337    2.8250    3.2526 C   0  0  0  0  0  0  0  0  0  0  0  0
   -0.6813    2.2218    4.4198 C   0  0  0  0  0  0  0  0  0  0  0  0
   -1.1353    3.0485    5.5473 N   0  0  0  0  0  0  0  0  0  0  0  0
   -1.5155    2.4140    6.8176 C   0  0  0  0  0  0  0  0  0  0  0  0
   -1.2091    4.5096    5.4045 C   0  0  0  0  0  0  0  0  0  0  0  0
   -0.4595    5.3343    6.2362 C   0  0  0  0  0  0  0  0  0  0  0  0
   -0.1742    6.6298    5.7502 C   0  0  0  0  0  0  0  0  0  0  0  0
   -1.1685    7.2346    4.9833 N   0  0  0  0  0  0  0  0  0  0  0  0
   -2.0454    6.4633    4.3762 C   0  0  0  0  0  0  0  0  0  0  0  0
   -3.1084    7.0718    3.5634 N   0  0  0  0  0  0  0  0  0  0  0  0
   -3.1876    8.5338    3.4322 C   0  0  0  0  0  0  0  0  0  0  0  0
   -2.1757    9.2280    2.9089 C   0  0  0  0  0  0  0  0  0  0  0  0
   -2.3001   10.6405    2.7923 C   0  0  0  0  0  0  0  0  0  0  0  0
   -3.3269   11.3014    3.4861 C   0  0  0  0  0  0  0  0  0  0  0  0
   -4.3081   10.6199    4.0003 C   0  0  0  0  0  0  0  0  0  0  0  0
   -5.6234   11.4719    4.9059 S   0  0  0  0  0  0  0  0  0  0  0  0
   -4.9313   12.3253    6.2807 N   0  0  0  0  0  0  0  0  0  0  0  0
   -6.3146   12.4742    3.9786 O   0  0  0  0  0  0  0  0  0  0  0  0
   -6.6462   10.4478    5.4034 O   0  0  0  0  0  0  0  0  0  0  0  0
   -4.3483    9.2269    3.8540 C   0  0  0  0  0  0  0  0  0  0  0  0
   -1.9775    5.0708    4.4956 N   0  0  0  0  0  0  0  0  0  0  0  0
   -0.6195    0.8807    4.5684 C   0  0  0  0  0  0  0  0  0  0  0  0
   -0.1773    0.0848    3.4910 C   0  0  0  0  0  0  0  0  0  0  0  0
    0.0017   -1.2209    3.2960 N   0  0  0  0  0  0  0  0  0  0  0  0
    0.4468   -1.4080    2.0622 N   0  0  0  0  0  0  0  0  0  0  0  0
    0.7641   -2.7180    1.4755 C   0  0  0  0  0  0  0  0  0  0  0  0
    0.7153    0.8641   -0.3717 H   0  0  0  0  0  0  0  0  0  0  0  0
    0.7153   -0.8681   -0.6005 H   0  0  0  0  0  0  0  0  0  0  0  0
    2.1420   -0.0680    0.0139 H   0  0  0  0  0  0  0  0  0  0  0  0
    0.3774    2.6157    1.2842 H   0  0  0  0  0  0  0  0  0  0  0  0
   -0.4067    3.8896    3.1740 H   0  0  0  0  0  0  0  0  0  0  0  0
   -0.8881    2.7824    7.6022 H   0  0  0  0  0  0  0  0  0  0  0  0
   -2.5366    2.6441    7.0397 H   0  0  0  0  0  0  0  0  0  0  0  0
   -1.3986    1.3535    6.7357 H   0  0  0  0  0  0  0  0  0  0  0  0
   -0.1166    5.0048    7.1947 H   0  0  0  0  0  0  0  0  0  0  0  0
    0.7539    7.1196    5.9593 H   0  0  0  0  0  0  0  0  0  0  0  0
   -3.7911    6.4796    3.0905 H   0  0  0  0  0  0  0  0  0  0  0  0
   -1.2860    8.7312    2.5825 H   0  0  0  0  0  0  0  0  0  0  0  0
   -1.6177   11.1942    2.1818 H   0  0  0  0  0  0  0  0  0  0  0  0
   -3.3020   12.3658    3.5917 H   0  0  0  0  0  0  0  0  0  0  0  0
   -5.6725   12.8054    6.7911 H   0  0  0  0  0  0  0  0  0  0  0  0
   -4.4706   11.6573    6.8987 H   0  0  0  0  0  0  0  0  0  0  0  0
   -5.2507    8.6900    4.0597 H   0  0  0  0  0  0  0  0  0  0  0  0
   -0.9034    0.4263    5.4946 H   0  0  0  0  0  0  0  0  0  0  0  0
    1.5329   -3.1898    2.0512 H   0  0  0  0  0  0  0  0  0  0  0  0
   -0.1121   -3.3321    1.4793 H   0  0  0  0  0  0  0  0  0  0  0  0
    1.1026   -2.5856    0.4691 H   0  0  0  0  0  0  0  0  0  0  0  0
  1  2  1  0  0  0  0
  1 31  1  0  0  0  0
  1 32  1  0  0  0  0
  1 33  1  0  0  0  0
  2  3  2  0  0  0  0
  2 29  1  0  0  0  0
  3  4  1  0  0  0  0
  3 27  1  0  0  0  0
  4  5  2  0  0  0  0
  4 34  1  0  0  0  0
  5  6  1  0  0  0  0
  5 35  1  0  0  0  0
  6  7  1  0  0  0  0
  6 26  2  0  0  0  0
  7  8  1  0  0  0  0
  7  9  1  0  0  0  0
  8 36  1  0  0  0  0
  8 37  1  0  0  0  0
  8 38  1  0  0  0  0
  9 10  1  0  0  0  0
  9 25  2  0  0  0  0
 10 11  2  0  0  0  0
 10 39  1  0  0  0  0
 11 12  1  0  0  0  0
 11 40  1  0  0  0  0
 12 13  2  0  0  0  0
 13 14  1  0  0  0  0
 13 25  1  0  0  0  0
 14 15  1  0  0  0  0
 14 41  1  0  0  0  0
 15 16  1  0  0  0  0
 15 24  2  0  0  0  0
 16 17  2  0  0  0  0
 16 42  1  0  0  0  0
 17 18  1  0  0  0  0
 17 43  1  0  0  0  0
 18 19  2  0  0  0  0
 18 44  1  0  0  0  0
 19 20  1  0  0  0  0
 19 24  1  0  0  0  0
 20 21  1  0  0  0  0
 20 22  2  0  0  0  0
 20 23  2  0  0  0  0
 21 45  1  0  0  0  0
 21 46  1  0  0  0  0
 24 47  1  0  0  0  0
 26 27  1  0  0  0  0
 26 48  1  0  0  0  0
 27 28  2  0  0  0  0
 28 29  1  0  0  0  0
 29 30  1  0  0  0  0
 30 49  1  0  0  0  0
 30 50  1  0  0  0  0
 30 51  1  0  0  0  0
M  END
