REMARK  Name = 
REMARK  7 active torsions:
REMARK  status: ('A' for Active; 'I' for Inactive)
REMARK    1  A    between atoms: C_1  and  C_2
REMARK    2  A    between atoms: C_6  and  N_7
REMARK    3  A    between atoms: N_7  and  C_8
REMARK    4  A    between atoms: N_14  and  C_15
REMARK    5  A    between atoms: C_19  and  S_20
REMARK    6  A    between atoms: S_20  and  N_21
REMARK    7  A    between atoms: N_29  and  C_30
REMARK                            x       y       z     vdW  Elec       q    Type
REMARK                         _______ _______ _______ _____ _____    ______ ____
ROOT
ATOM      1  N   UNL     1      -1.135   3.049   5.547  0.00  0.00    +0.000 N 
ATOM      2  C   UNL     1      -1.516   2.414   6.818  0.00  0.00    +0.000 C 
ATOM      3  C   UNL     1      -1.209   4.510   5.404  0.00  0.00    +0.000 A 
ATOM      4  C   UNL     1      -0.460   5.334   6.236  0.00  0.00    +0.000 A 
ATOM      5  C   UNL     1      -0.174   6.630   5.750  0.00  0.00    +0.000 A 
ATOM      6  N   UNL     1      -1.169   7.235   4.983  0.00  0.00    +0.000 NA
ATOM      7  C   UNL     1      -2.045   6.463   4.376  0.00  0.00    +0.000 A 
ATOM      8  N   UNL     1      -3.108   7.072   3.563  0.00  0.00    +0.000 N 
ATOM      9  N   UNL     1      -1.978   5.071   4.496  0.00  0.00    +0.000 NA
ATOM     10  H   UNL     1      -3.791   6.480   3.091  0.00  0.00    +0.000 HD
ENDROOT
BRANCH   1  16
ATOM     11  C   UNL     1       1.072  -0.068   0.014  0.00  0.00    +0.000 C 
ATOM     12  C   UNL     1       0.565  -0.256   1.435  0.00  0.00    +0.000 A 
ATOM     13  C   UNL     1       0.191   0.724   2.274  0.00  0.00    +0.000 A 
ATOM     14  C   UNL     1       0.102   2.114   2.188  0.00  0.00    +0.000 A 
ATOM     15  C   UNL     1      -0.334   2.825   3.253  0.00  0.00    +0.000 A 
ATOM     16  C   UNL     1      -0.681   2.222   4.420  0.00  0.00    +0.000 A 
ATOM     17  C   UNL     1      -0.620   0.881   4.568  0.00  0.00    +0.000 A 
ATOM     18  C   UNL     1      -0.177   0.085   3.491  0.00  0.00    +0.000 A 
ATOM     19  N   UNL     1       0.002  -1.221   3.296  0.00  0.00    +0.000 NA
ATOM     20  N   UNL     1       0.447  -1.408   2.062  0.00  0.00    +0.000 N 
ATOM     21  C   UNL     1       0.764  -2.718   1.476  0.00  0.00    +0.000 C 
ENDBRANCH   1  16
BRANCH   8  22
ATOM     22  C   UNL     1      -3.188   8.534   3.432  0.00  0.00    +0.000 A 
ATOM     23  C   UNL     1      -2.176   9.228   2.909  0.00  0.00    +0.000 A 
ATOM     24  C   UNL     1      -2.300  10.640   2.792  0.00  0.00    +0.000 A 
ATOM     25  C   UNL     1      -3.327  11.301   3.486  0.00  0.00    +0.000 A 
ATOM     26  C   UNL     1      -4.308  10.620   4.000  0.00  0.00    +0.000 A 
ATOM     27  C   UNL     1      -4.348   9.227   3.854  0.00  0.00    +0.000 A 
BRANCH  26  28
ATOM     28  S   UNL     1      -5.623  11.472   4.906  0.00  0.00    +0.000 S 
ATOM     29  O   UNL     1      -6.315  12.474   3.979  0.00  0.00    +0.000 OA
ATOM     30  O   UNL     1      -6.646  10.448   5.403  0.00  0.00    +0.000 OA
BRANCH  28  31
ATOM     31  N   UNL     1      -4.931  12.325   6.281  0.00  0.00    +0.000 NA
ATOM     32  H   UNL     1      -5.673  12.805   6.791  0.00  0.00    +0.000 HD
ATOM     33  H   UNL     1      -4.471  11.657   6.899  0.00  0.00    +0.000 HD
ENDBRANCH  28  31
ENDBRANCH  26  28
ENDBRANCH   8  22
TORSDOF 4
