REMARK  Name = 
REMARK  5 active torsions:
REMARK  status: ('A' for Active; 'I' for Inactive)
REMARK    1  A    between atoms: C_2  and  C_10
REMARK    2  A    between atoms: N_3  and  C_4
REMARK    3  A    between atoms: C_13  and  C_14
REMARK    4  A    between atoms: C_16  and  C_17
REMARK    5  A    between atoms: C_21  and  C_22
REMARK                            x       y       z     vdW  Elec       q    Type
REMARK                         _______ _______ _______ _____ _____    ______ ____
ROOT
ATOM      1  C   UNL     1       5.369   4.915   0.557  0.00  0.00    +0.000 A 
ATOM      2  C   UNL     1       5.908   5.265   1.780  0.00  0.00    +0.000 A 
ATOM      3  C   UNL     1       6.584   6.481   1.909  0.00  0.00    +0.000 A 
ATOM      4  C   UNL     1       6.696   7.280   0.778  0.00  0.00    +0.000 A 
ATOM      5  C   UNL     1       6.150   6.843  -0.407  0.00  0.00    +0.000 A 
ATOM      6  N   UNL     1       5.484   5.690  -0.532  0.00  0.00    +0.000 NA
ENDROOT
BRANCH   1  10
ATOM      7  C   UNL     1       3.124   1.313   0.078  0.00  0.00    +0.000 A 
ATOM      8  C   UNL     1       4.201   1.542  -0.762  0.00  0.00    +0.000 A 
ATOM      9  C   UNL     1       5.002   2.644  -0.381  0.00  0.00    +0.000 A 
ATOM     10  C   UNL     1       4.617   3.598   0.448  0.00  0.00    +0.000 A 
ATOM     11  C   UNL     1       3.506   3.338   1.201  0.00  0.00    +0.000 A 
ATOM     12  C   UNL     1       2.746   2.216   0.975  0.00  0.00    +0.000 A 
BRANCH   7  14
ATOM     13  O   UNL     1       1.093   0.001  -0.036  0.00  0.00    +0.000 OA
ATOM     14  C   UNL     1       2.364   0.001  -0.036  0.00  0.00    +0.000 C 
ATOM     15  N   UNL     1       3.099  -1.267  -0.146  0.00  0.00    +0.000 N 
ATOM     16  H   UNL     1       2.589  -2.147  -0.222  0.00  0.00    +0.000 HD
BRANCH  15  17
ATOM     17  C   UNL     1       4.569  -1.267  -0.146  0.00  0.00    +0.000 C 
ATOM     18  C   UNL     1       5.065  -0.604   1.137  0.00  0.00    +0.000 C 
ATOM     19  C   UNL     1       6.586  -0.423   1.073  0.00  0.00    +0.000 C 
ATOM     20  O   UNL     1       6.968   0.296  -0.117  0.00  0.00    +0.000 OA
ATOM     21  C   UNL     1       6.561  -0.373  -1.327  0.00  0.00    +0.000 C 
ATOM     22  C   UNL     1       5.063  -0.531  -1.384  0.00  0.00    +0.000 C 
ENDBRANCH  15  17
ENDBRANCH   7  14
ENDBRANCH   1  10
BRANCH   3  23
ATOM     23  C   UNL     1       7.175   6.915   3.241  0.00  0.00    +0.000 A 
ATOM     24  C   UNL     1       6.946   8.121   3.940  0.00  0.00    +0.000 A 
ATOM     25  N   UNL     1       7.704   8.191   5.021  0.00  0.00    +0.000 NA
ATOM     26  N   UNL     1       8.429   7.032   5.013  0.00  0.00    +0.000 N 
ATOM     27  C   UNL     1       8.115   6.253   3.943  0.00  0.00    +0.000 A 
ATOM     28  H   UNL     1       9.119   6.783   5.721  0.00  0.00    +0.000 HD
BRANCH  27  29
ATOM     29  C   UNL     1       8.710   4.896   3.604  0.00  0.00    +0.000 A 
ATOM     30  C   UNL     1       9.380   4.691   2.414  0.00  0.00    +0.000 A 
ATOM     31  C   UNL     1       9.865   3.418   2.108  0.00  0.00    +0.000 A 
ATOM     32  C   UNL     1       9.662   2.409   3.042  0.00  0.00    +0.000 A 
ATOM     33  C   UNL     1       9.005   2.705   4.215  0.00  0.00    +0.000 A 
ATOM     34  N   UNL     1       8.520   3.917   4.503  0.00  0.00    +0.000 NA
ENDBRANCH  27  29
ENDBRANCH   3  23
TORSDOF 5
