REMARK  Name = 
REMARK  2 active torsions:
REMARK  status: ('A' for Active; 'I' for Inactive)
REMARK    1  A    between atoms: C_4  and  C_5
REMARK    2  A    between atoms: C_12  and  C_13
REMARK                            x       y       z     vdW  Elec       q    Type
REMARK                         _______ _______ _______ _____ _____    ______ ____
ROOT
ATOM      1  N   UNL     1       2.126   0.059   0.007  0.00  0.00    +0.000 N 
ATOM      2  C   UNL     1       0.810  -0.181  -0.001  0.00  0.00    +0.000 A 
ATOM      3  N   UNL     1       0.276  -1.373  -0.006  0.00  0.00    +0.000 NA
ATOM      4  C   UNL     1      -1.107  -1.277  -0.002  0.00  0.00    +0.000 A 
ATOM      5  C   UNL     1      -1.605  -0.027   0.013  0.00  0.00    +0.000 A 
ATOM      6  S   UNL     1      -0.337   1.130  -0.004  0.00  0.00    +0.000 S 
ATOM      7  H   UNL     1       2.469   1.020   0.011  0.00  0.00    +0.000 HD
ATOM      8  H   UNL     1       2.786  -0.719   0.009  0.00  0.00    +0.000 HD
ENDROOT
BRANCH   5   9
ATOM      9  C   UNL     1      -3.086   0.314   0.041  0.00  0.00    +0.000 A 
ATOM     10  C   UNL     1      -3.838  -0.153   1.131  0.00  0.00    +0.000 A 
ATOM     11  C   UNL     1      -5.181   0.106   1.201  0.00  0.00    +0.000 A 
ATOM     12  C   UNL     1      -5.732   0.870   0.140  0.00  0.00    +0.000 A 
ATOM     13  N   UNL     1      -7.070   1.161   0.176  0.00  0.00    +0.000 NA
ATOM     14  C   UNL     1      -7.552   1.865  -0.814  0.00  0.00    +0.000 A 
ATOM     15  C   UNL     1      -6.791   2.347  -1.882  0.00  0.00    +0.000 A 
ATOM     16  C   UNL     1      -5.470   2.068  -1.918  0.00  0.00    +0.000 A 
ATOM     17  C   UNL     1      -4.891   1.304  -0.898  0.00  0.00    +0.000 A 
ATOM     18  N   UNL     1      -3.561   1.017  -0.948  0.00  0.00    +0.000 NA
ENDBRANCH   5   9
BRANCH   4  19
ATOM     19  C   UNL     1      -2.003  -2.505  -0.014  0.00  0.00    +0.000 A 
ATOM     20  C   UNL     1      -1.921  -3.427   1.017  0.00  0.00    +0.000 A 
ATOM     21  C   UNL     1      -2.744  -4.547   1.026  0.00  0.00    +0.000 A 
ATOM     22  C   UNL     1      -3.641  -4.757  -0.017  0.00  0.00    +0.000 A 
ATOM     23  C   UNL     1      -3.686  -3.840  -1.054  0.00  0.00    +0.000 A 
ATOM     24 CL   UNL     1      -4.797  -4.120  -2.359  0.00  0.00    +0.000 Cl
ATOM     25  C   UNL     1      -2.903  -2.696  -1.062  0.00  0.00    +0.000 A 
ENDBRANCH   4  19
TORSDOF 2
