REMARK  Name = 
REMARK  5 active torsions:
REMARK  status: ('A' for Active; 'I' for Inactive)
REMARK    1  A    between atoms: N_1  and  C_2
REMARK    2  A    between atoms: C_9  and  C_10
REMARK    3  A    between atoms: C_13  and  N_14
REMARK    4  A    between atoms: N_17  and  C_18
REMARK    5  A    between atoms: C_22  and  C_23
REMARK                            x       y       z     vdW  Elec       q    Type
REMARK                         _______ _______ _______ _____ _____    ______ ____
ROOT
ATOM      1  C   UNL     1      -0.902   1.602   1.664  0.00  0.00    +0.000 A 
ATOM      2  C   UNL     1       0.337   1.878   2.207  0.00  0.00    +0.000 A 
ATOM      3  C   UNL     1       0.601   1.588   3.471  0.00  0.00    +0.000 A 
ATOM      4  C   UNL     1      -0.305   1.035   4.259  0.00  0.00    +0.000 A 
ATOM      5  C   UNL     1      -1.566   0.732   3.783  0.00  0.00    +0.000 A 
ATOM      6  C   UNL     1      -1.875   1.016   2.460  0.00  0.00    +0.000 A 
ENDROOT
BRANCH   1  14
ATOM      7  C   UNL     1       0.337   0.663  -1.161  0.00  0.00    +0.000 A 
ATOM      8  N   UNL     1       0.678   0.441  -2.449  0.00  0.00    +0.000 NA
ATOM      9  C   UNL     1       0.066   1.096  -3.470  0.00  0.00    +0.000 A 
ATOM     10  N   UNL     1      -0.921   1.992  -3.248  0.00  0.00    +0.000 NA
ATOM     11  C   UNL     1      -1.325   2.268  -1.940  0.00  0.00    +0.000 A 
ATOM     12  O   UNL     1      -2.239   3.078  -1.381  0.00  0.00    +0.000 OA
ATOM     13  C   UNL     1      -2.184   2.926  -0.074  0.00  0.00    +0.000 A 
ATOM     14  C   UNL     1      -1.256   2.038   0.251  0.00  0.00    +0.000 A 
ATOM     15  C   UNL     1      -0.684   1.590  -0.866  0.00  0.00    +0.000 A 
BRANCH   7  16
ATOM     16  N   UNL     1       1.072   0.056  -0.042  0.00  0.00    +0.000 N 
ATOM     17  H   UNL     1       0.562  -0.366   0.734  0.00  0.00    +0.000 HD
ATOM     18  H   UNL     1       2.092   0.056  -0.042  0.00  0.00    +0.000 HD
ENDBRANCH   7  16
ENDBRANCH   1  14
BRANCH   4  19
ATOM     19  N   UNL     1       0.033   0.738   5.659  0.00  0.00    +0.000 N 
ATOM     20  C   UNL     1       1.371   1.057   6.175  0.00  0.00    +0.000 C 
ATOM     21  O   UNL     1       1.664   0.800   7.385  0.00  0.00    +0.000 OA
ATOM     22  N   UNL     1       2.373   1.672   5.292  0.00  0.00    +0.000 N 
ATOM     23  H   UNL     1      -0.662   0.311   6.272  0.00  0.00    +0.000 HD
ATOM     24  H   UNL     1       3.302   1.893   5.650  0.00  0.00    +0.000 HD
BRANCH  22  25
ATOM     25  C   UNL     1       2.035   1.968   3.892  0.00  0.00    +0.000 A 
ATOM     26  C   UNL     1       2.940   1.726   2.879  0.00  0.00    +0.000 A 
ATOM     27  C   UNL     1       2.661   2.059   1.628  0.00  0.00    +0.000 A 
ATOM     28  C   UNL     1       1.512   2.627   1.302  0.00  0.00    +0.000 A 
ATOM     29  C   UNL     1       0.560   2.899   2.265  0.00  0.00    +0.000 A 
ATOM     30  C   UNL     1       0.822   2.568   3.587  0.00  0.00    +0.000 A 
BRANCH  29  31
ATOM     31  C   UNL     1      -0.758   3.552   1.882  0.00  0.00    +0.000 C 
ATOM     32  F   UNL     1      -0.521   4.738   1.329  0.00  0.00    +0.000 F 
ATOM     33  F   UNL     1      -1.400   2.778   1.012  0.00  0.00    +0.000 F 
ATOM     34  F   UNL     1      -1.506   3.712   2.970  0.00  0.00    +0.000 F 
ENDBRANCH  29  31
ENDBRANCH  22  25
ENDBRANCH   4  19
TORSDOF 5
