
 OpenBabel03132514253D

 48 51  0  0  0  0  0  0  0  0999 V2000
    0.9354   -0.0361    0.0673 N   0  0  0  0  0  0  0  0  0  0  0  0
    0.2004    0.7520   -0.9326 C   0  0  0  0  0  0  0  0  0  0  0  0
    0.5126    0.7693   -2.2106 N   0  0  0  0  0  0  0  0  0  0  0  0
   -0.1878    1.6288   -3.0501 C   0  0  0  0  0  0  0  0  0  0  0  0
   -1.4708    2.0296   -2.6152 C   0  0  0  0  0  0  0  0  0  0  0  0
   -1.6284    2.2128   -1.2426 C   0  0  0  0  0  0  0  0  0  0  0  0
   -2.7237    3.1150   -0.6979 C   0  0  0  0  0  0  0  0  0  0  0  0
   -3.6632    3.8889   -0.2306 C   0  0  0  0  0  0  0  0  0  0  0  0
   -4.7586    4.7911    0.3141 C   0  0  0  0  0  0  0  0  0  0  0  0
   -5.9176    4.2891    0.8713 C   0  0  0  0  0  0  0  0  0  0  0  0
   -6.8370    5.1020    1.3676 N   0  0  0  0  0  0  0  0  0  0  0  0
   -6.6805    6.4151    1.3550 C   0  0  0  0  0  0  0  0  0  0  0  0
   -5.5454    6.9866    0.8132 N   0  0  0  0  0  0  0  0  0  0  0  0
   -4.5641    6.1644    0.2787 C   0  0  0  0  0  0  0  0  0  0  0  0
   -3.3453    6.7356   -0.3121 N   0  0  0  0  0  0  0  0  0  0  0  0
   -3.1559    8.1931   -0.3411 C   0  0  0  0  0  0  0  0  0  0  0  0
   -2.9597    8.9033   -1.5205 C   0  0  0  0  0  0  0  0  0  0  0  0
   -3.2514   10.2851   -1.4814 C   0  0  0  0  0  0  0  0  0  0  0  0
   -2.9636   10.9434   -0.2871 C   0  0  0  0  0  0  0  0  0  0  0  0
   -2.7380   12.3452   -0.2650 O   0  0  0  0  0  0  0  0  0  0  0  0
   -2.4461   12.9981    0.9617 C   0  0  0  0  0  0  0  0  0  0  0  0
   -3.6003   12.7967    1.9300 C   0  0  0  0  0  0  0  0  0  0  0  0
   -4.0838   11.5224    2.2061 C   0  0  0  0  0  0  0  0  0  0  0  0
   -4.7558   11.3551    3.4375 C   0  0  0  0  0  0  0  0  0  0  0  0
   -5.5214   12.4345    3.8748 C   0  0  0  0  0  0  0  0  0  0  0  0
   -5.2229   13.6352    3.4258 C   0  0  0  0  0  0  0  0  0  0  0  0
   -5.9393   14.6827    3.8237 F   0  0  0  0  0  0  0  0  0  0  0  0
   -4.1605   13.8223    2.5346 C   0  0  0  0  0  0  0  0  0  0  0  0
   -2.9062   10.2335    0.8197 C   0  0  0  0  0  0  0  0  0  0  0  0
   -2.5364   11.0390    2.3633 Cl  0  0  0  0  0  0  0  0  0  0  0  0
   -3.1326    8.8529    0.7970 C   0  0  0  0  0  0  0  0  0  0  0  0
   -0.8051    1.5852   -0.4298 N   0  0  0  0  0  0  0  0  0  0  0  0
    0.4254   -0.5829    0.7610 H   0  0  0  0  0  0  0  0  0  0  0  0
    1.9554   -0.0361    0.0673 H   0  0  0  0  0  0  0  0  0  0  0  0
    0.2238    1.9689   -3.9774 H   0  0  0  0  0  0  0  0  0  0  0  0
   -2.2770    2.1839   -3.3017 H   0  0  0  0  0  0  0  0  0  0  0  0
   -6.0745    3.2311    0.9024 H   0  0  0  0  0  0  0  0  0  0  0  0
   -7.4419    7.0423    1.7694 H   0  0  0  0  0  0  0  0  0  0  0  0
   -2.6310    6.1206   -0.7020 H   0  0  0  0  0  0  0  0  0  0  0  0
   -2.6062    8.4278   -2.4115 H   0  0  0  0  0  0  0  0  0  0  0  0
   -3.6701   10.7978   -2.3221 H   0  0  0  0  0  0  0  0  0  0  0  0
   -1.5523   12.5858    1.3813 H   0  0  0  0  0  0  0  0  0  0  0  0
   -2.3074   14.0442    0.7848 H   0  0  0  0  0  0  0  0  0  0  0  0
   -3.9537   10.7106    1.5213 H   0  0  0  0  0  0  0  0  0  0  0  0
   -4.6810   10.4499    4.0031 H   0  0  0  0  0  0  0  0  0  0  0  0
   -6.3318   12.2907    4.5586 H   0  0  0  0  0  0  0  0  0  0  0  0
   -3.7994   14.8110    2.3426 H   0  0  0  0  0  0  0  0  0  0  0  0
   -3.2885    8.3275    1.7160 H   0  0  0  0  0  0  0  0  0  0  0  0
  1  2  1  0  0  0  0
  1 33  1  0  0  0  0
  1 34  1  0  0  0  0
  2  3  1  0  0  0  0
  2 32  2  0  0  0  0
  3  4  2  0  0  0  0
  4  5  1  0  0  0  0
  4 35  1  0  0  0  0
  5  6  2  0  0  0  0
  5 36  1  0  0  0  0
  6  7  1  0  0  0  0
  6 32  1  0  0  0  0
  7  8  3  0  0  0  0
  8  9  1  0  0  0  0
  9 10  1  0  0  0  0
  9 14  2  0  0  0  0
 10 11  2  0  0  0  0
 10 37  1  0  0  0  0
 11 12  1  0  0  0  0
 12 13  2  0  0  0  0
 12 38  1  0  0  0  0
 13 14  1  0  0  0  0
 14 15  1  0  0  0  0
 15 16  1  0  0  0  0
 15 39  1  0  0  0  0
 16 17  1  0  0  0  0
 16 31  2  0  0  0  0
 17 18  2  0  0  0  0
 17 40  1  0  0  0  0
 18 19  1  0  0  0  0
 18 41  1  0  0  0  0
 19 20  1  0  0  0  0
 19 29  2  0  0  0  0
 20 21  1  0  0  0  0
 21 22  1  0  0  0  0
 21 42  1  0  0  0  0
 21 43  1  0  0  0  0
 22 23  1  0  0  0  0
 22 28  2  0  0  0  0
 23 24  2  0  0  0  0
 23 44  1  0  0  0  0
 24 25  1  0  0  0  0
 24 45  1  0  0  0  0
 25 26  2  0  0  0  0
 25 46  1  0  0  0  0
 26 27  1  0  0  0  0
 26 28  1  0  0  0  0
 28 47  1  0  0  0  0
 29 30  1  0  0  0  0
 29 31  1  0  0  0  0
 31 48  1  0  0  0  0
M  END
