REMARK  Name = 
REMARK  7 active torsions:
REMARK  status: ('A' for Active; 'I' for Inactive)
REMARK    1  A    between atoms: C_6  and  C_7
REMARK    2  A    between atoms: C_8  and  C_9
REMARK    3  A    between atoms: C_14  and  N_15
REMARK    4  A    between atoms: N_15  and  C_16
REMARK    5  A    between atoms: C_19  and  O_20
REMARK    6  A    between atoms: O_20  and  C_21
REMARK    7  A    between atoms: C_21  and  C_22
REMARK                            x       y       z     vdW  Elec       q    Type
REMARK                         _______ _______ _______ _____ _____    ______ ____
ROOT
ATOM      1  N   UNL     1      -3.345   6.736  -0.312  0.00  0.00    +0.000 N 
ATOM      2  H   UNL     1      -2.631   6.121  -0.702  0.00  0.00    +0.000 HD
ENDROOT
BRANCH   1   3
ATOM      3  C   UNL     1      -3.156   8.193  -0.341  0.00  0.00    +0.000 A 
ATOM      4  C   UNL     1      -2.960   8.903  -1.520  0.00  0.00    +0.000 A 
ATOM      5  C   UNL     1      -3.251  10.285  -1.481  0.00  0.00    +0.000 A 
ATOM      6  C   UNL     1      -2.964  10.943  -0.287  0.00  0.00    +0.000 A 
ATOM      7  C   UNL     1      -2.906  10.233   0.820  0.00  0.00    +0.000 A 
ATOM      8 CL   UNL     1      -2.536  11.039   2.363  0.00  0.00    +0.000 Cl
ATOM      9  C   UNL     1      -3.133   8.853   0.797  0.00  0.00    +0.000 A 
BRANCH   6  10
ATOM     10  O   UNL     1      -2.738  12.345  -0.265  0.00  0.00    +0.000 OA
BRANCH  10  11
ATOM     11  C   UNL     1      -2.446  12.998   0.962  0.00  0.00    +0.000 C 
BRANCH  11  12
ATOM     12  C   UNL     1      -3.600  12.797   1.930  0.00  0.00    +0.000 A 
ATOM     13  C   UNL     1      -4.084  11.522   2.206  0.00  0.00    +0.000 A 
ATOM     14  C   UNL     1      -4.756  11.355   3.438  0.00  0.00    +0.000 A 
ATOM     15  C   UNL     1      -5.521  12.434   3.875  0.00  0.00    +0.000 A 
ATOM     16  C   UNL     1      -5.223  13.635   3.426  0.00  0.00    +0.000 A 
ATOM     17  F   UNL     1      -5.939  14.683   3.824  0.00  0.00    +0.000 F 
ATOM     18  C   UNL     1      -4.160  13.822   2.535  0.00  0.00    +0.000 A 
ENDBRANCH  11  12
ENDBRANCH  10  11
ENDBRANCH   6  10
ENDBRANCH   1   3
BRANCH   1  24
ATOM     19  C   UNL     1      -4.759   4.791   0.314  0.00  0.00    +0.000 A 
ATOM     20  C   UNL     1      -5.918   4.289   0.871  0.00  0.00    +0.000 A 
ATOM     21  N   UNL     1      -6.837   5.102   1.368  0.00  0.00    +0.000 NA
ATOM     22  C   UNL     1      -6.681   6.415   1.355  0.00  0.00    +0.000 A 
ATOM     23  N   UNL     1      -5.545   6.987   0.813  0.00  0.00    +0.000 NA
ATOM     24  C   UNL     1      -4.564   6.164   0.279  0.00  0.00    +0.000 A 
BRANCH  19  26
ATOM     25  C   UNL     1      -2.724   3.115  -0.698  0.00  0.00    +0.000 C 
ATOM     26  C   UNL     1      -3.663   3.889  -0.231  0.00  0.00    +0.000 C 
BRANCH  25  32
ATOM     27  N   UNL     1       0.935  -0.036   0.067  0.00  0.00    +0.000 N 
ATOM     28  C   UNL     1       0.200   0.752  -0.933  0.00  0.00    +0.000 A 
ATOM     29  N   UNL     1       0.513   0.769  -2.211  0.00  0.00    +0.000 NA
ATOM     30  C   UNL     1      -0.188   1.629  -3.050  0.00  0.00    +0.000 A 
ATOM     31  C   UNL     1      -1.471   2.030  -2.615  0.00  0.00    +0.000 A 
ATOM     32  C   UNL     1      -1.628   2.213  -1.243  0.00  0.00    +0.000 A 
ATOM     33  N   UNL     1      -0.805   1.585  -0.430  0.00  0.00    +0.000 NA
ATOM     34  H   UNL     1       0.425  -0.583   0.761  0.00  0.00    +0.000 HD
ATOM     35  H   UNL     1       1.955  -0.036   0.067  0.00  0.00    +0.000 HD
ENDBRANCH  25  32
ENDBRANCH  19  26
ENDBRANCH   1  24
TORSDOF 7
