REMARK  Name = 
REMARK  7 active torsions:
REMARK  status: ('A' for Active; 'I' for Inactive)
REMARK    1  A    between atoms: C_1  and  O_2
REMARK    2  A    between atoms: O_2  and  C_3
REMARK    3  A    between atoms: C_7  and  C_8
REMARK    4  A    between atoms: C_8  and  O_9
REMARK    5  A    between atoms: O_9  and  C_10
REMARK    6  A    between atoms: C_12  and  N_13
REMARK    7  A    between atoms: C_23  and  C_24
REMARK                            x       y       z     vdW  Elec       q    Type
REMARK                         _______ _______ _______ _____ _____    ______ ____
ROOT
ATOM      1  C   UNL     1       4.526  -3.712   3.514  0.00  0.00    +0.000 A 
ATOM      2  C   UNL     1       3.431  -2.913   3.862  0.00  0.00    +0.000 A 
ATOM      3  C   UNL     1       3.674  -2.133   4.968  0.00  0.00    +0.000 A 
ATOM      4  S   UNL     1       5.266  -2.380   5.576  0.00  0.00    +0.000 S 
ATOM      5  C   UNL     1       5.586  -3.542   4.349  0.00  0.00    +0.000 A 
ENDROOT
BRANCH   3   6
ATOM      6  N   UNL     1       2.697  -1.205   5.556  0.00  0.00    +0.000 N 
ATOM      7  C   UNL     1       1.431  -1.075   4.991  0.00  0.00    +0.000 A 
ATOM      8  N   UNL     1       1.090  -1.824   3.867  0.00  0.00    +0.000 NA
ATOM      9  C   UNL     1       2.067  -2.752   3.279  0.00  0.00    +0.000 A 
ATOM     10  C   UNL     1       2.226  -2.704   1.904  0.00  0.00    +0.000 A 
ATOM     11  C   UNL     1       2.982  -3.777   1.376  0.00  0.00    +0.000 A 
ATOM     12  C   UNL     1       3.774  -4.557   2.089  0.00  0.00    +0.000 A 
ATOM     13  C   UNL     1       3.614  -4.509   3.446  0.00  0.00    +0.000 A 
ATOM     14  C   UNL     1       2.793  -3.573   4.028  0.00  0.00    +0.000 A 
ENDBRANCH   3   6
BRANCH   5  15
ATOM     15  C   UNL     1       6.902  -4.292   4.213  0.00  0.00    +0.000 C 
ATOM     16  N   UNL     1       7.993  -4.040   5.166  0.00  0.00    +0.000 N 
ATOM     17  O   UNL     1       7.058  -5.136   3.276  0.00  0.00    +0.000 OA
ATOM     18  H   UNL     1       8.875  -4.544   5.075  0.00  0.00    +0.000 HD
ATOM     19  H   UNL     1       7.867  -3.363   5.918  0.00  0.00    +0.000 HD
ENDBRANCH   5  15
BRANCH   1  20
ATOM     20  O   UNL     1       4.539  -4.595   2.402  0.00  0.00    +0.000 OA
BRANCH  20  21
ATOM     21  C   UNL     1       4.037  -4.164   1.146  0.00  0.00    +0.000 C 
BRANCH  21  26
ATOM     22  C   UNL     1       0.925  -2.109   1.201  0.00  0.00    +0.000 A 
ATOM     23  C   UNL     1      -0.055  -3.018   1.565  0.00  0.00    +0.000 A 
ATOM     24  C   UNL     1       0.451  -4.274   1.973  0.00  0.00    +0.000 A 
ATOM     25  C   UNL     1       1.669  -4.712   1.712  0.00  0.00    +0.000 A 
ATOM     26  C   UNL     1       2.574  -3.778   1.291  0.00  0.00    +0.000 A 
ATOM     27  C   UNL     1       2.180  -2.495   0.997  0.00  0.00    +0.000 A 
BRANCH  22  29
ATOM     28  C   UNL     1       1.056  -0.015  -0.082  0.00  0.00    +0.000 C 
ATOM     29  O   UNL     1       0.582  -0.741   1.043  0.00  0.00    +0.000 OA
ENDBRANCH  22  29
ENDBRANCH  21  26
ENDBRANCH  20  21
ENDBRANCH   1  20
TORSDOF 6
