REMARK  Name = 
REMARK  2 active torsions:
REMARK  status: ('A' for Active; 'I' for Inactive)
REMARK    1  A    between atoms: C_7  and  C_8
REMARK    2  A    between atoms: N_13  and  C_14
REMARK                            x       y       z     vdW  Elec       q    Type
REMARK                         _______ _______ _______ _____ _____    ______ ____
ROOT
ATOM      1  C   UNL     1       2.109  -2.489  -0.003  0.00  0.00    +0.000 A 
ATOM      2  C   UNL     1       1.777  -3.346  -1.047  0.00  0.00    +0.000 A 
ATOM      3  C   UNL     1       2.649  -4.434  -1.273  0.00  0.00    +0.000 A 
ATOM      4  N   UNL     1       3.230  -5.005  -0.142  0.00  0.00    +0.000 NA
ATOM      5  C   UNL     1       3.333  -4.271   0.946  0.00  0.00    +0.000 A 
ATOM      6  N   UNL     1       3.938  -4.847   2.155  0.00  0.00    +0.000 N 
ATOM      7  N   UNL     1       2.874  -2.950   0.964  0.00  0.00    +0.000 NA
ATOM      8  H   UNL     1       4.020  -4.284   3.002  0.00  0.00    +0.000 HD
ENDROOT
BRANCH   6   9
ATOM      9  C   UNL     1       4.423  -6.235   2.146  0.00  0.00    +0.000 A 
ATOM     10  C   UNL     1       3.884  -7.159   3.034  0.00  0.00    +0.000 A 
ATOM     11  C   UNL     1       3.992  -8.521   2.672  0.00  0.00    +0.000 A 
ATOM     12  C   UNL     1       5.154  -8.889   1.997  0.00  0.00    +0.000 A 
ATOM     13  C   UNL     1       5.818  -7.961   1.341  0.00  0.00    +0.000 A 
ATOM     14  C   UNL     1       5.364  -6.638   1.319  0.00  0.00    +0.000 A 
ATOM     15  O   UNL     1       7.008  -8.306   0.648  0.00  0.00    +0.000 OA
ATOM     16  C   UNL     1       7.730  -7.311  -0.063  0.00  0.00    +0.000 C 
ATOM     17  C   UNL     1       6.840  -6.710  -1.138  0.00  0.00    +0.000 C 
ATOM     18  O   UNL     1       5.612 -10.234   2.017  0.00  0.00    +0.000 OA
ENDBRANCH   6   9
BRANCH   1  25
ATOM     19  C   UNL     1      -2.084  -0.707   0.002  0.00  0.00    +0.000 A 
ATOM     20  C   UNL     1      -2.096   0.652  -0.003  0.00  0.00    +0.000 A 
ATOM     21  N   UNL     1      -0.952   1.372   0.002  0.00  0.00    +0.000 NA
ATOM     22  N   UNL     1       0.280   0.715   0.001  0.00  0.00    +0.000 N 
ATOM     23  N   UNL     1       1.564   1.108   0.000  0.00  0.00    +0.000 NA
ATOM     24  C   UNL     1       2.327   0.034   0.000  0.00  0.00    +0.000 A 
ATOM     25  C   UNL     1       1.584  -1.063  -0.001  0.00  0.00    +0.000 A 
ATOM     26  C   UNL     1       0.300  -0.708   0.000  0.00  0.00    +0.000 A 
ATOM     27  C   UNL     1      -0.927  -1.404   0.000  0.00  0.00    +0.000 A 
ENDBRANCH   1  25
TORSDOF 2
