
 OpenBabel03132514253D

 53 58  0  0  0  0  0  0  0  0999 V2000
    1.0817   -0.0567   -0.0106 F   0  0  0  0  0  0  0  0  0  0  0  0
    2.4117   -0.0567   -0.0106 C   0  0  0  0  0  0  0  0  0  0  0  0
    2.8550    0.5767   -1.0928 F   0  0  0  0  0  0  0  0  0  0  0  0
    2.8550    0.5639    1.0790 F   0  0  0  0  0  0  0  0  0  0  0  0
    2.9184   -1.4897   -0.0191 C   0  0  0  0  0  0  0  0  0  0  0  0
    2.0770   -2.5256   -0.3901 C   0  0  0  0  0  0  0  0  0  0  0  0
    2.5804   -3.8115   -0.0819 C   0  0  0  0  0  0  0  0  0  0  0  0
    3.8458   -4.0753    0.1885 C   0  0  0  0  0  0  0  0  0  0  0  0
    4.3883   -5.4952    0.1759 C   0  0  0  0  0  0  0  0  0  0  0  0
    4.3781   -6.2982   -0.8779 N   0  0  0  0  0  0  0  0  0  0  0  0
    4.9308   -7.4604   -0.5333 N   0  0  0  0  0  0  0  0  0  0  0  0
    5.1969   -8.6746   -1.2002 N   0  0  0  0  0  0  0  0  0  0  0  0
    5.7910   -9.6838   -0.5271 C   0  0  0  0  0  0  0  0  0  0  0  0
    6.1337   -9.5610    0.7824 C   0  0  0  0  0  0  0  0  0  0  0  0
    5.9080   -8.4200    1.4712 C   0  0  0  0  0  0  0  0  0  0  0  0
    5.2979   -7.3366    0.8361 C   0  0  0  0  0  0  0  0  0  0  0  0
    4.9339   -6.0997    1.2115 C   0  0  0  0  0  0  0  0  0  0  0  0
    5.1198   -5.4995    2.5955 C   0  0  0  0  0  0  0  0  0  0  0  0
    4.0442   -5.1553    3.4070 C   0  0  0  0  0  0  0  0  0  0  0  0
    4.2640   -5.2055    4.8016 C   0  0  0  0  0  0  0  0  0  0  0  0
    5.5349   -4.8378    5.2402 N   0  0  0  0  0  0  0  0  0  0  0  0
    6.5390   -4.9304    4.3942 C   0  0  0  0  0  0  0  0  0  0  0  0
    7.8906   -4.5461    4.8260 N   0  0  0  0  0  0  0  0  0  0  0  0
    8.1147   -4.0617    6.1957 C   0  0  0  0  0  0  0  0  0  0  0  0
    8.7322   -2.8358    6.3815 C   0  0  0  0  0  0  0  0  0  0  0  0
    9.2661   -2.6538    7.6791 C   0  0  0  0  0  0  0  0  0  0  0  0
    8.9291   -3.3716    8.7352 C   0  0  0  0  0  0  0  0  0  0  0  0
    8.2607   -4.5387    8.4891 C   0  0  0  0  0  0  0  0  0  0  0  0
    7.8216   -4.8483    7.2245 C   0  0  0  0  0  0  0  0  0  0  0  0
    8.0168   -5.4437    9.5557 O   0  0  0  0  0  0  0  0  0  0  0  0
    7.3236   -6.6587    9.3115 C   0  0  0  0  0  0  0  0  0  0  0  0
    5.9383   -6.3510    8.7670 C   0  0  0  0  0  0  0  0  0  0  0  0
    9.2440   -2.9537   10.0553 O   0  0  0  0  0  0  0  0  0  0  0  0
    6.3348   -5.3906    3.0887 N   0  0  0  0  0  0  0  0  0  0  0  0
    4.6418   -3.0026    0.4805 C   0  0  0  0  0  0  0  0  0  0  0  0
    4.1792   -1.7176    0.3294 C   0  0  0  0  0  0  0  0  0  0  0  0
    1.1320   -2.3676   -0.8666 H   0  0  0  0  0  0  0  0  0  0  0  0
    1.8877   -4.6268   -0.0669 H   0  0  0  0  0  0  0  0  0  0  0  0
    5.9968  -10.6017   -1.0369 H   0  0  0  0  0  0  0  0  0  0  0  0
    6.5939  -10.3885    1.2807 H   0  0  0  0  0  0  0  0  0  0  0  0
    6.1958   -8.3474    2.4992 H   0  0  0  0  0  0  0  0  0  0  0  0
    3.0990   -4.8673    2.9963 H   0  0  0  0  0  0  0  0  0  0  0  0
    3.4973   -5.5090    5.4835 H   0  0  0  0  0  0  0  0  0  0  0  0
    8.6729   -4.6157    4.1752 H   0  0  0  0  0  0  0  0  0  0  0  0
    8.7993   -2.0938    5.6135 H   0  0  0  0  0  0  0  0  0  0  0  0
    9.9935   -1.8808    7.8142 H   0  0  0  0  0  0  0  0  0  0  0  0
    7.2382   -5.7314    7.0673 H   0  0  0  0  0  0  0  0  0  0  0  0
    7.8663   -7.2416    8.5969 H   0  0  0  0  0  0  0  0  0  0  0  0
    7.2338   -7.2080   10.2253 H   0  0  0  0  0  0  0  0  0  0  0  0
    5.4159   -7.2666    8.5830 H   0  0  0  0  0  0  0  0  0  0  0  0
    5.3955   -5.7682    9.4816 H   0  0  0  0  0  0  0  0  0  0  0  0
    5.6392   -3.1661    0.8317 H   0  0  0  0  0  0  0  0  0  0  0  0
    4.8411   -0.8932    0.4941 H   0  0  0  0  0  0  0  0  0  0  0  0
  1  2  1  0  0  0  0
  2  3  1  0  0  0  0
  2  4  1  0  0  0  0
  2  5  1  0  0  0  0
  5  6  1  0  0  0  0
  5 36  2  0  0  0  0
  6  7  2  0  0  0  0
  6 37  1  0  0  0  0
  7  8  1  0  0  0  0
  7 38  1  0  0  0  0
  8  9  1  0  0  0  0
  8 35  2  0  0  0  0
  9 10  2  0  0  0  0
  9 17  1  0  0  0  0
 10 11  1  0  0  0  0
 11 12  1  0  0  0  0
 11 16  1  0  0  0  0
 12 13  2  0  0  0  0
 13 14  1  0  0  0  0
 13 39  1  0  0  0  0
 14 15  2  0  0  0  0
 14 40  1  0  0  0  0
 15 16  1  0  0  0  0
 15 41  1  0  0  0  0
 16 17  2  0  0  0  0
 17 18  1  0  0  0  0
 18 19  1  0  0  0  0
 18 34  2  0  0  0  0
 19 20  2  0  0  0  0
 19 42  1  0  0  0  0
 20 21  1  0  0  0  0
 20 43  1  0  0  0  0
 21 22  2  0  0  0  0
 22 23  1  0  0  0  0
 22 34  1  0  0  0  0
 23 24  1  0  0  0  0
 23 44  1  0  0  0  0
 24 25  1  0  0  0  0
 24 29  2  0  0  0  0
 25 26  2  0  0  0  0
 25 45  1  0  0  0  0
 26 27  1  0  0  0  0
 26 46  1  0  0  0  0
 27 28  2  0  0  0  0
 27 33  1  0  0  0  0
 28 29  1  0  0  0  0
 28 30  1  0  0  0  0
 29 47  1  0  0  0  0
 30 31  1  0  0  0  0
 31 32  1  0  0  0  0
 31 48  1  0  0  0  0
 31 49  1  0  0  0  0
 32 33  1  0  0  0  0
 32 50  1  0  0  0  0
 32 51  1  0  0  0  0
 35 36  1  0  0  0  0
 35 52  1  0  0  0  0
 36 53  1  0  0  0  0
M  END
