
 OpenBabel03132514253D

 51 54  0  0  0  0  0  0  0  0999 V2000
    0.9278   -0.0673    0.0162 C   0  0  0  0  0  0  0  0  0  0  0  0
    0.4545    1.1196    0.6355 O   0  0  0  0  0  0  0  0  0  0  0  0
    0.7975    1.4021    1.9842 C   0  0  0  0  0  0  0  0  0  0  0  0
   -0.1610    1.9204    2.8634 C   0  0  0  0  0  0  0  0  0  0  0  0
    0.2379    2.2542    4.1669 C   0  0  0  0  0  0  0  0  0  0  0  0
   -0.3844    2.7565    5.2435 N   0  0  0  0  0  0  0  0  0  0  0  0
    0.4984    2.8660    6.2168 C   0  0  0  0  0  0  0  0  0  0  0  0
    1.6910    2.4535    5.8080 N   0  0  0  0  0  0  0  0  0  0  0  0
    2.9169    2.4402    6.6192 C   0  0  0  0  0  0  0  0  0  0  0  0
    4.0667    3.1038    6.3470 C   0  0  0  0  0  0  0  0  0  0  0  0
    4.9149    2.8114    7.3627 C   0  0  0  0  0  0  0  0  0  0  0  0
    6.2443    3.2879    7.5118 O   0  0  0  0  0  0  0  0  0  0  0  0
    6.7999    4.1587    6.5374 C   0  0  0  0  0  0  0  0  0  0  0  0
    6.8077    3.4661    5.1844 C   0  0  0  0  0  0  0  0  0  0  0  0
    5.6010    3.3213    4.4446 C   0  0  0  0  0  0  0  0  0  0  0  0
    5.5615    2.4323    3.3581 C   0  0  0  0  0  0  0  0  0  0  0  0
    6.6676    1.9591    2.8639 C   0  0  0  0  0  0  0  0  0  0  0  0
    7.9007    2.3433    3.4073 C   0  0  0  0  0  0  0  0  0  0  0  0
    7.9400    2.9833    4.6700 C   0  0  0  0  0  0  0  0  0  0  0  0
    9.2512    3.1181    5.4269 C   0  0  0  0  0  0  0  0  0  0  0  0
    9.7483    1.9089    5.6713 F   0  0  0  0  0  0  0  0  0  0  0  0
   10.1165    3.8135    4.6944 F   0  0  0  0  0  0  0  0  0  0  0  0
    9.0360    3.7498    6.5774 F   0  0  0  0  0  0  0  0  0  0  0  0
    4.2846    2.0112    8.1784 C   0  0  0  0  0  0  0  0  0  0  0  0
    4.8642    1.4319    9.4586 C   0  0  0  0  0  0  0  0  0  0  0  0
    6.2387    1.7648    9.8598 N   0  0  0  0  0  0  0  0  0  0  0  0
    4.1605    0.6596   10.1823 O   0  0  0  0  0  0  0  0  0  0  0  0
    3.0987    1.7873    7.7345 S   0  0  0  0  0  0  0  0  0  0  0  0
    1.5948    2.0542    4.5442 C   0  0  0  0  0  0  0  0  0  0  0  0
    2.4767    1.5448    3.6401 C   0  0  0  0  0  0  0  0  0  0  0  0
    2.0855    1.2300    2.3962 C   0  0  0  0  0  0  0  0  0  0  0  0
    3.0383    0.7034    1.4845 O   0  0  0  0  0  0  0  0  0  0  0  0
    2.6444    0.3638    0.1632 C   0  0  0  0  0  0  0  0  0  0  0  0
    0.5712   -0.1103   -0.9917 H   0  0  0  0  0  0  0  0  0  0  0  0
    0.5712   -0.9187    0.5573 H   0  0  0  0  0  0  0  0  0  0  0  0
    1.9978   -0.0673    0.0162 H   0  0  0  0  0  0  0  0  0  0  0  0
   -1.1742    2.0589    2.5487 H   0  0  0  0  0  0  0  0  0  0  0  0
    0.2832    3.2355    7.1977 H   0  0  0  0  0  0  0  0  0  0  0  0
    4.2645    3.7305    5.5026 H   0  0  0  0  0  0  0  0  0  0  0  0
    6.2109    5.0501    6.4784 H   0  0  0  0  0  0  0  0  0  0  0  0
    7.8020    4.4112    6.8147 H   0  0  0  0  0  0  0  0  0  0  0  0
    4.7319    3.8844    4.7136 H   0  0  0  0  0  0  0  0  0  0  0  0
    4.6211    2.1442    2.9367 H   0  0  0  0  0  0  0  0  0  0  0  0
    6.6359    1.2755    2.0413 H   0  0  0  0  0  0  0  0  0  0  0  0
    8.8073    2.1542    2.8714 H   0  0  0  0  0  0  0  0  0  0  0  0
    6.6276    1.3760   10.7188 H   0  0  0  0  0  0  0  0  0  0  0  0
    6.8035    2.3846    9.2790 H   0  0  0  0  0  0  0  0  0  0  0  0
    3.4965    1.3935    3.9262 H   0  0  0  0  0  0  0  0  0  0  0  0
    1.8807   -0.3848    0.1999 H   0  0  0  0  0  0  0  0  0  0  0  0
    2.2671    1.2343   -0.3314 H   0  0  0  0  0  0  0  0  0  0  0  0
    3.4887   -0.0142   -0.3747 H   0  0  0  0  0  0  0  0  0  0  0  0
  1  2  1  0  0  0  0
  1 34  1  0  0  0  0
  1 35  1  0  0  0  0
  1 36  1  0  0  0  0
  2  3  1  0  0  0  0
  3  4  1  0  0  0  0
  3 31  2  0  0  0  0
  4  5  2  0  0  0  0
  4 37  1  0  0  0  0
  5  6  1  0  0  0  0
  5 29  1  0  0  0  0
  6  7  2  0  0  0  0
  7  8  1  0  0  0  0
  7 38  1  0  0  0  0
  8  9  1  0  0  0  0
  8 29  1  0  0  0  0
  9 10  2  0  0  0  0
  9 28  1  0  0  0  0
 10 11  1  0  0  0  0
 10 39  1  0  0  0  0
 11 12  1  0  0  0  0
 11 24  2  0  0  0  0
 12 13  1  0  0  0  0
 13 14  1  0  0  0  0
 13 40  1  0  0  0  0
 13 41  1  0  0  0  0
 14 15  1  0  0  0  0
 14 19  2  0  0  0  0
 15 16  2  0  0  0  0
 15 42  1  0  0  0  0
 16 17  1  0  0  0  0
 16 43  1  0  0  0  0
 17 18  2  0  0  0  0
 17 44  1  0  0  0  0
 18 19  1  0  0  0  0
 18 45  1  0  0  0  0
 19 20  1  0  0  0  0
 20 21  1  0  0  0  0
 20 22  1  0  0  0  0
 20 23  1  0  0  0  0
 24 25  1  0  0  0  0
 24 28  1  0  0  0  0
 25 26  1  0  0  0  0
 25 27  2  0  0  0  0
 26 46  1  0  0  0  0
 26 47  1  0  0  0  0
 29 30  2  0  0  0  0
 30 31  1  0  0  0  0
 30 48  1  0  0  0  0
 31 32  1  0  0  0  0
 32 33  1  0  0  0  0
 33 49  1  0  0  0  0
 33 50  1  0  0  0  0
 33 51  1  0  0  0  0
M  END
