
 OpenBabel03132514253D

 48 51  0  0  0  0  0  0  0  0999 V2000
    1.0072    0.0924   -0.0376 C   0  0  0  0  0  0  0  0  0  0  0  0
    0.5339    1.2323    0.6645 O   0  0  0  0  0  0  0  0  0  0  0  0
    0.8769    1.4184    2.0298 C   0  0  0  0  0  0  0  0  0  0  0  0
   -0.0941    1.8416    2.9453 C   0  0  0  0  0  0  0  0  0  0  0  0
    0.2902    2.0528    4.2785 C   0  0  0  0  0  0  0  0  0  0  0  0
   -0.3462    2.4442    5.3923 N   0  0  0  0  0  0  0  0  0  0  0  0
    0.5272    2.4681    6.3799 C   0  0  0  0  0  0  0  0  0  0  0  0
    1.7272    2.1073    5.9449 N   0  0  0  0  0  0  0  0  0  0  0  0
    2.9461    2.0275    6.7627 C   0  0  0  0  0  0  0  0  0  0  0  0
    4.0917    2.7243    6.5661 C   0  0  0  0  0  0  0  0  0  0  0  0
    4.9335    2.3448    7.5581 C   0  0  0  0  0  0  0  0  0  0  0  0
    6.2565    2.8172    7.7651 O   0  0  0  0  0  0  0  0  0  0  0  0
    6.8123    3.7813    6.8831 C   0  0  0  0  0  0  0  0  0  0  0  0
    6.8395    3.2200    5.4708 C   0  0  0  0  0  0  0  0  0  0  0  0
    5.7668    3.4984    4.5787 C   0  0  0  0  0  0  0  0  0  0  0  0
    5.6357    2.7432    3.4018 C   0  0  0  0  0  0  0  0  0  0  0  0
    6.6197    1.9963    2.9950 C   0  0  0  0  0  0  0  0  0  0  0  0
    7.8156    1.9518    3.7237 C   0  0  0  0  0  0  0  0  0  0  0  0
    7.8486    2.4576    5.0461 C   0  0  0  0  0  0  0  0  0  0  0  0
    9.2143    2.0821    6.1241 Cl  0  0  0  0  0  0  0  0  0  0  0  0
    4.3037    1.4652    8.2881 C   0  0  0  0  0  0  0  0  0  0  0  0
    4.8772    0.7726    9.5136 C   0  0  0  0  0  0  0  0  0  0  0  0
    6.2445    1.0786    9.9583 N   0  0  0  0  0  0  0  0  0  0  0  0
    4.1746   -0.0710   10.1537 O   0  0  0  0  0  0  0  0  0  0  0  0
    3.1242    1.2736    7.8130 S   0  0  0  0  0  0  0  0  0  0  0  0
    1.6457    1.8299    4.6478 C   0  0  0  0  0  0  0  0  0  0  0  0
    2.5403    1.4172    3.7076 C   0  0  0  0  0  0  0  0  0  0  0  0
    2.1629    1.2192    2.4356 C   0  0  0  0  0  0  0  0  0  0  0  0
    3.1287    0.7909    1.4868 O   0  0  0  0  0  0  0  0  0  0  0  0
    2.7495    0.5756    0.1354 C   0  0  0  0  0  0  0  0  0  0  0  0
    0.6505    0.1210   -1.0460 H   0  0  0  0  0  0  0  0  0  0  0  0
    0.6505   -0.7952    0.4418 H   0  0  0  0  0  0  0  0  0  0  0  0
    2.0772    0.0924   -0.0376 H   0  0  0  0  0  0  0  0  0  0  0  0
   -1.1060    2.0005    2.6357 H   0  0  0  0  0  0  0  0  0  0  0  0
    0.3000    2.7401    7.3895 H   0  0  0  0  0  0  0  0  0  0  0  0
    4.2910    3.4300    5.7868 H   0  0  0  0  0  0  0  0  0  0  0  0
    6.2150    4.6689    6.9027 H   0  0  0  0  0  0  0  0  0  0  0  0
    7.8093    4.0155    7.1931 H   0  0  0  0  0  0  0  0  0  0  0  0
    5.0664    4.2758    4.8023 H   0  0  0  0  0  0  0  0  0  0  0  0
    4.7261    2.7823    2.8398 H   0  0  0  0  0  0  0  0  0  0  0  0
    6.5158    1.4151    2.1026 H   0  0  0  0  0  0  0  0  0  0  0  0
    8.6988    1.5380    3.2837 H   0  0  0  0  0  0  0  0  0  0  0  0
    6.6293    0.6138   10.7806 H   0  0  0  0  0  0  0  0  0  0  0  0
    6.8084    1.7557    9.4445 H   0  0  0  0  0  0  0  0  0  0  0  0
    3.5591    1.2484    3.9876 H   0  0  0  0  0  0  0  0  0  0  0  0
    1.9929   -0.1798    0.0933 H   0  0  0  0  0  0  0  0  0  0  0  0
    2.3678    1.4861   -0.2772 H   0  0  0  0  0  0  0  0  0  0  0  0
    3.6020    0.2584   -0.4280 H   0  0  0  0  0  0  0  0  0  0  0  0
  1  2  1  0  0  0  0
  1 31  1  0  0  0  0
  1 32  1  0  0  0  0
  1 33  1  0  0  0  0
  2  3  1  0  0  0  0
  3  4  1  0  0  0  0
  3 28  2  0  0  0  0
  4  5  2  0  0  0  0
  4 34  1  0  0  0  0
  5  6  1  0  0  0  0
  5 26  1  0  0  0  0
  6  7  2  0  0  0  0
  7  8  1  0  0  0  0
  7 35  1  0  0  0  0
  8  9  1  0  0  0  0
  8 26  1  0  0  0  0
  9 10  2  0  0  0  0
  9 25  1  0  0  0  0
 10 11  1  0  0  0  0
 10 36  1  0  0  0  0
 11 12  1  0  0  0  0
 11 21  2  0  0  0  0
 12 13  1  0  0  0  0
 13 14  1  0  0  0  0
 13 37  1  0  0  0  0
 13 38  1  0  0  0  0
 14 15  1  0  0  0  0
 14 19  2  0  0  0  0
 15 16  2  0  0  0  0
 15 39  1  0  0  0  0
 16 17  1  0  0  0  0
 16 40  1  0  0  0  0
 17 18  2  0  0  0  0
 17 41  1  0  0  0  0
 18 19  1  0  0  0  0
 18 42  1  0  0  0  0
 19 20  1  0  0  0  0
 21 22  1  0  0  0  0
 21 25  1  0  0  0  0
 22 23  1  0  0  0  0
 22 24  2  0  0  0  0
 23 43  1  0  0  0  0
 23 44  1  0  0  0  0
 26 27  2  0  0  0  0
 27 28  1  0  0  0  0
 27 45  1  0  0  0  0
 28 29  1  0  0  0  0
 29 30  1  0  0  0  0
 30 46  1  0  0  0  0
 30 47  1  0  0  0  0
 30 48  1  0  0  0  0
M  END
