REMARK  Name = 
REMARK  6 active torsions:
REMARK  status: ('A' for Active; 'I' for Inactive)
REMARK    1  A    between atoms: C_2  and  C_4
REMARK    2  A    between atoms: C_6  and  N_7
REMARK    3  A    between atoms: C_12  and  C_13
REMARK    4  A    between atoms: C_21  and  O_22
REMARK    5  A    between atoms: O_22  and  C_23
REMARK    6  A    between atoms: C_23  and  C_24
REMARK                            x       y       z     vdW  Elec       q    Type
REMARK                         _______ _______ _______ _____ _____    ______ ____
ROOT
ATOM      1  C   UNL     1       0.965   1.587  -2.072  0.00  0.00    +0.000 A 
ATOM      2  S   UNL     1       0.758   3.264  -2.405  0.00  0.00    +0.000 S 
ATOM      3  C   UNL     1       2.130   3.256  -3.443  0.00  0.00    +0.000 A 
ATOM      4  C   UNL     1       2.699   2.023  -3.533  0.00  0.00    +0.000 A 
ATOM      5  C   UNL     1       2.041   1.067  -2.752  0.00  0.00    +0.000 A 
ENDROOT
BRANCH   3   6
ATOM      6  N   UNL     1       2.630   4.444  -4.151  0.00  0.00    +0.000 N 
ATOM      7  C   UNL     1       2.874   5.575  -3.522  0.00  0.00    +0.000 A 
ATOM      8  N   UNL     1       3.171   6.533  -4.389  0.00  0.00    +0.000 NA
ATOM      9  C   UNL     1       3.123   6.024  -5.619  0.00  0.00    +0.000 A 
ATOM     10  C   UNL     1       3.335   6.532  -6.918  0.00  0.00    +0.000 A 
ATOM     11  C   UNL     1       3.199   5.711  -7.981  0.00  0.00    +0.000 A 
ATOM     12  C   UNL     1       2.855   4.404  -7.832  0.00  0.00    +0.000 A 
ATOM     13  C   UNL     1       2.644   3.861  -6.612  0.00  0.00    +0.000 A 
ATOM     14  C   UNL     1       2.769   4.653  -5.470  0.00  0.00    +0.000 A 
BRANCH  11  15
ATOM     15  C   UNL     1       3.436   6.261  -9.378  0.00  0.00    +0.000 C 
ATOM     16  F   UNL     1       2.582   7.253  -9.615  0.00  0.00    +0.000 F 
ATOM     17  F   UNL     1       4.682   6.717  -9.470  0.00  0.00    +0.000 F 
ATOM     18  F   UNL     1       3.251   5.294 -10.273  0.00  0.00    +0.000 F 
ENDBRANCH  11  15
ENDBRANCH   3   6
BRANCH   1  20
ATOM     19  N   UNL     1       0.940  -0.048  -0.064  0.00  0.00    +0.000 N 
ATOM     20  C   UNL     1       0.205   0.755  -1.051  0.00  0.00    +0.000 C 
ATOM     21  O   UNL     1      -1.066   0.755  -1.051  0.00  0.00    +0.000 OA
ATOM     22  H   UNL     1       0.430  -0.606   0.622  0.00  0.00    +0.000 HD
ATOM     23  H   UNL     1       1.960  -0.048  -0.064  0.00  0.00    +0.000 HD
ENDBRANCH   1  20
BRANCH   5  24
ATOM     24  O   UNL     1       2.442  -0.293  -2.671  0.00  0.00    +0.000 OA
BRANCH  24  25
ATOM     25  C   UNL     1       1.717  -1.199  -1.852  0.00  0.00    +0.000 C 
BRANCH  25  26
ATOM     26  C   UNL     1       1.753  -0.718  -0.410  0.00  0.00    +0.000 A 
ATOM     27  C   UNL     1       0.686   0.078   0.091  0.00  0.00    +0.000 A 
ATOM     28  C   UNL     1       0.845   0.754   1.311  0.00  0.00    +0.000 A 
ATOM     29  C   UNL     1       1.830   0.445   2.103  0.00  0.00    +0.000 A 
ATOM     30  C   UNL     1       2.727  -0.569   1.744  0.00  0.00    +0.000 A 
ATOM     31  C   UNL     1       2.758  -1.036   0.407  0.00  0.00    +0.000 A 
ATOM     32 BR   UNL     1       4.252  -2.133  -0.230  0.00  0.00    +0.000 Br
ENDBRANCH  25  26
ENDBRANCH  24  25
ENDBRANCH   5  24
TORSDOF 6
