REMARK  Name = 
REMARK  9 active torsions:
REMARK  status: ('A' for Active; 'I' for Inactive)
REMARK    1  A    between atoms: C_1  and  O_2
REMARK    2  A    between atoms: O_2  and  C_3
REMARK    3  A    between atoms: N_8  and  C_9
REMARK    4  A    between atoms: C_11  and  O_12
REMARK    5  A    between atoms: O_12  and  C_13
REMARK    6  A    between atoms: C_13  and  C_14
REMARK    7  A    between atoms: C_21  and  C_22
REMARK    8  A    between atoms: C_28  and  O_29
REMARK    9  A    between atoms: O_29  and  C_30
REMARK                            x       y       z     vdW  Elec       q    Type
REMARK                         _______ _______ _______ _____ _____    ______ ____
ROOT
ATOM      1  C   UNL     1       2.946   2.027   6.763  0.00  0.00    +0.000 A 
ATOM      2  C   UNL     1       4.092   2.724   6.566  0.00  0.00    +0.000 A 
ATOM      3  C   UNL     1       4.934   2.345   7.558  0.00  0.00    +0.000 A 
ATOM      4  C   UNL     1       4.304   1.465   8.288  0.00  0.00    +0.000 A 
ATOM      5  S   UNL     1       3.124   1.274   7.813  0.00  0.00    +0.000 S 
ENDROOT
BRANCH   1  11
ATOM      6  C   UNL     1       0.877   1.418   2.030  0.00  0.00    +0.000 A 
ATOM      7  C   UNL     1      -0.094   1.842   2.945  0.00  0.00    +0.000 A 
ATOM      8  C   UNL     1       0.290   2.053   4.279  0.00  0.00    +0.000 A 
ATOM      9  N   UNL     1      -0.346   2.444   5.392  0.00  0.00    +0.000 NA
ATOM     10  C   UNL     1       0.527   2.468   6.380  0.00  0.00    +0.000 A 
ATOM     11  N   UNL     1       1.727   2.107   5.945  0.00  0.00    +0.000 N 
ATOM     12  C   UNL     1       1.646   1.830   4.648  0.00  0.00    +0.000 A 
ATOM     13  C   UNL     1       2.540   1.417   3.708  0.00  0.00    +0.000 A 
ATOM     14  C   UNL     1       2.163   1.219   2.436  0.00  0.00    +0.000 A 
BRANCH   6  16
ATOM     15  C   UNL     1       1.007   0.092  -0.038  0.00  0.00    +0.000 C 
ATOM     16  O   UNL     1       0.534   1.232   0.664  0.00  0.00    +0.000 OA
ENDBRANCH   6  16
BRANCH  14  17
ATOM     17  O   UNL     1       3.129   0.791   1.487  0.00  0.00    +0.000 OA
ATOM     18  C   UNL     1       2.749   0.576   0.135  0.00  0.00    +0.000 C 
ENDBRANCH  14  17
ENDBRANCH   1  11
BRANCH   4  19
ATOM     19  C   UNL     1       4.877   0.773   9.514  0.00  0.00    +0.000 C 
ATOM     20  N   UNL     1       6.245   1.079   9.958  0.00  0.00    +0.000 N 
ATOM     21  O   UNL     1       4.175  -0.071  10.154  0.00  0.00    +0.000 OA
ATOM     22  H   UNL     1       6.629   0.614  10.781  0.00  0.00    +0.000 HD
ATOM     23  H   UNL     1       6.808   1.756   9.444  0.00  0.00    +0.000 HD
ENDBRANCH   4  19
BRANCH   3  24
ATOM     24  O   UNL     1       6.256   2.817   7.765  0.00  0.00    +0.000 OA
BRANCH  24  25
ATOM     25  C   UNL     1       6.812   3.781   6.883  0.00  0.00    +0.000 C 
BRANCH  25  26
ATOM     26  C   UNL     1       6.840   3.220   5.471  0.00  0.00    +0.000 A 
ATOM     27  C   UNL     1       5.767   3.498   4.579  0.00  0.00    +0.000 A 
ATOM     28  C   UNL     1       5.636   2.743   3.402  0.00  0.00    +0.000 A 
ATOM     29  C   UNL     1       6.620   1.996   2.995  0.00  0.00    +0.000 A 
ATOM     30  C   UNL     1       7.816   1.952   3.724  0.00  0.00    +0.000 A 
ATOM     31  C   UNL     1       7.849   2.458   5.046  0.00  0.00    +0.000 A 
ATOM     32 CL   UNL     1       9.214   2.082   6.124  0.00  0.00    +0.000 Cl
ENDBRANCH  25  26
ENDBRANCH  24  25
ENDBRANCH   3  24
TORSDOF 7
