REMARK  Name = 
REMARK  8 active torsions:
REMARK  status: ('A' for Active; 'I' for Inactive)
REMARK    1  A    between atoms: C_1  and  C_2
REMARK    2  A    between atoms: C_2  and  N_3
REMARK    3  A    between atoms: C_4  and  C_5
REMARK    4  A    between atoms: C_16  and  C_17
REMARK    5  A    between atoms: N_19  and  C_20
REMARK    6  A    between atoms: C_20  and  C_21
REMARK    7  A    between atoms: C_21  and  N_22
REMARK    8  A    between atoms: N_22  and  C_23
REMARK                            x       y       z     vdW  Elec       q    Type
REMARK                         _______ _______ _______ _____ _____    ______ ____
ROOT
ATOM      1  N   UNL     1       0.937  -0.193   2.369  0.00  0.00    +0.000 N 
ATOM      2  C   UNL     1       0.824   1.079   2.692  0.00  0.00    +0.000 A 
ATOM      3  N   UNL     1       1.222   1.278   3.940  0.00  0.00    +0.000 NA
ATOM      4  C   UNL     1       1.607   0.112   4.456  0.00  0.00    +0.000 A 
ATOM      5  C   UNL     1       2.114  -0.308   5.704  0.00  0.00    +0.000 A 
ATOM      6  N   UNL     1       2.409  -1.612   5.894  0.00  0.00    +0.000 NA
ATOM      7  C   UNL     1       2.235  -2.532   4.909  0.00  0.00    +0.000 A 
ATOM      8  C   UNL     1       1.748  -2.189   3.695  0.00  0.00    +0.000 A 
ATOM      9  C   UNL     1       1.421  -0.858   3.431  0.00  0.00    +0.000 A 
ENDROOT
BRANCH   2  10
ATOM     10  C   UNL     1       0.308   2.166   1.764  0.00  0.00    +0.000 A 
ATOM     11  N   UNL     1       0.940   3.780   1.343  0.00  0.00    +0.000 NA
ATOM     12  O   UNL     1      -0.432   4.379   0.468  0.00  0.00    +0.000 OA
ATOM     13  N   UNL     1      -1.313   3.344   0.526  0.00  0.00    +0.000 NA
ATOM     14  C   UNL     1      -0.952   2.194   1.182  0.00  0.00    +0.000 A 
ATOM     15  N   UNL     1      -1.861   1.041   1.265  0.00  0.00    +0.000 N 
ATOM     16  H   UNL     1      -2.782   1.085   0.829  0.00  0.00    +0.000 HD
ATOM     17  H   UNL     1      -1.570   0.197   1.758  0.00  0.00    +0.000 HD
ENDBRANCH   2  10
BRANCH   8  18
ATOM     18  C   UNL     1       1.556  -3.249   2.623  0.00  0.00    +0.000 C 
ATOM     19  O   UNL     1       1.098  -2.924   1.483  0.00  0.00    +0.000 OA
ATOM     20  N   UNL     1       1.901  -4.650   2.904  0.00  0.00    +0.000 N 
ATOM     21  H   UNL     1       1.772  -5.361   2.184  0.00  0.00    +0.000 HD
BRANCH  20  22
ATOM     22  C   UNL     1       2.430  -5.026   4.223  0.00  0.00    +0.000 C 
BRANCH  22  23
ATOM     23  C   UNL     1       1.503  -6.041   4.871  0.00  0.00    +0.000 C 
BRANCH  23  24
ATOM     24  N   UNL     1       1.413  -7.236   4.020  0.00  0.00    +0.000 NA
ATOM     25  C   UNL     1       0.515  -8.217   4.647  0.00  0.00    +0.000 C 
ATOM     26  H   UNL     1       1.045  -6.975   3.105  0.00  0.00    +0.000 HD
ENDBRANCH  23  24
ENDBRANCH  22  23
ENDBRANCH  20  22
ENDBRANCH   8  18
BRANCH   1  28
ATOM     27  C   UNL     1       0.953   0.067  -0.058  0.00  0.00    +0.000 C 
ATOM     28  C   UNL     1       0.447  -0.766   1.108  0.00  0.00    +0.000 C 
ENDBRANCH   1  28
TORSDOF 6
