REMARK  Name = 
REMARK  12 active torsions:
REMARK  status: ('A' for Active; 'I' for Inactive)
REMARK    1  A    between atoms: C_1  and  C_2
REMARK    2  A    between atoms: C_5  and  C_6
REMARK    3  A    between atoms: C_6  and  O_8
REMARK    4  A    between atoms: C_11  and  C_12
REMARK    5  A    between atoms: C_17  and  C_18
REMARK    6  A    between atoms: C_21  and  O_22
REMARK    7  A    between atoms: C_23  and  C_24
REMARK    8  A    between atoms: C_23  and  C_25
REMARK    9  A    between atoms: C_25  and  O_27
REMARK   10  A    between atoms: C_31  and  C_32
REMARK   11  A    between atoms: C_34  and  C_35
REMARK   12  A    between atoms: C_34  and  O_36
REMARK                            x       y       z     vdW  Elec       q    Type
REMARK                         _______ _______ _______ _____ _____    ______ ____
ROOT
ATOM      1  C   UNL     1       0.983  -0.044   0.088  0.00  0.00    +0.000 C 
ATOM      2  C   UNL     1       0.477   1.385   0.200  0.00  0.00    +0.000 C 
ATOM      3  C   UNL     1      -0.599   1.451   1.174  0.00  0.00    +0.000 C 
ATOM      4  C   UNL     1      -1.853   1.486   0.696  0.00  0.00    +0.000 C 
ATOM      5  C   UNL     1      -3.020   1.556   1.646  0.00  0.00    +0.000 C 
ATOM      6  C   UNL     1      -4.008   2.621   1.162  0.00  0.00    +0.000 C 
ATOM      7  C   UNL     1      -3.782   3.913   1.944  0.00  0.00    +0.000 C 
ATOM      8  C   UNL     1      -3.267   4.998   0.996  0.00  0.00    +0.000 C 
ATOM      9  C   UNL     1      -4.463   5.192   0.078  0.00  0.00    +0.000 C 
ATOM     10  C   UNL     1       1.241   4.707   0.740  0.00  0.00    +0.000 C 
ATOM     11  C   UNL     1       0.576   5.659   0.132  0.00  0.00    +0.000 C 
ATOM     12  C   UNL     1      -0.037   6.780   0.932  0.00  0.00    +0.000 C 
ATOM     13  C   UNL     1      -1.552   6.792   0.714  0.00  0.00    +0.000 C 
ATOM     14  C   UNL     1      -1.865   6.333  -0.701  0.00  0.00    +0.000 C 
ATOM     15  C   UNL     1      -1.193   7.277  -1.685  0.00  0.00    +0.000 C 
ATOM     16  C   UNL     1      -1.338   4.914  -0.922  0.00  0.00    +0.000 C 
ATOM     17  C   UNL     1      -2.004   4.015  -0.032  0.00  0.00    +0.000 C 
ATOM     18  C   UNL     1      -3.419   3.950  -0.220  0.00  0.00    +0.000 C 
ATOM     19  C   UNL     1      -4.030   5.332   0.030  0.00  0.00    +0.000 C 
ATOM     20  C   UNL     1      -3.783   5.747   1.471  0.00  0.00    +0.000 C 
ATOM     21  C   UNL     1      -3.382   6.346  -0.917  0.00  0.00    +0.000 C 
ATOM     22  C   UNL     1      -3.929   7.736  -0.633  0.00  0.00    +0.000 C 
ATOM     23  C   UNL     1      -1.167   4.939   2.333  0.00  0.00    +0.000 C 
ATOM     24  C   UNL     1      -2.218   5.848   1.716  0.00  0.00    +0.000 C 
ATOM     25  C   UNL     1      -2.889   6.661   2.811  0.00  0.00    +0.000 C 
ATOM     26  C   UNL     1       1.854   3.588  -0.060  0.00  0.00    +0.000 C 
ATOM     27  C   UNL     1       1.608   2.276   0.642  0.00  0.00    +0.000 C 
ATOM     28  C   UNL     1       2.847   1.462   0.304  0.00  0.00    +0.000 C 
ENDROOT
BRANCH   5  29
ATOM     29  C   UNL     1      -3.825   0.745   2.648  0.00  0.00    +0.000 C 
ATOM     30  O   UNL     1      -3.518  -0.466   2.878  0.00  0.00    +0.000 OA
BRANCH  29  31
ATOM     31  O   UNL     1      -4.921   1.341   3.326  0.00  0.00    +0.000 OA
ATOM     32  H   UNL     1      -5.451   0.807   3.985  0.00  0.00    +0.000 HD
ENDBRANCH  29  31
ENDBRANCH   5  29
BRANCH  18  33
ATOM     33  O   UNL     1      -3.976   3.015   0.692  0.00  0.00    +0.000 OA
ATOM     34  H   UNL     1      -3.776   3.303   1.628  0.00  0.00    +0.000 HD
ENDBRANCH  18  33
BRANCH  19  35
ATOM     35  C   UNL     1      -5.527   5.280  -0.227  0.00  0.00    +0.000 C 
ATOM     36  O   UNL     1      -6.072   4.191  -0.592  0.00  0.00    +0.000 OA
BRANCH  35  37
ATOM     37  O   UNL     1      -6.317   6.448  -0.061  0.00  0.00    +0.000 OA
ATOM     38  H   UNL     1      -7.302   6.414  -0.230  0.00  0.00    +0.000 HD
ENDBRANCH  35  37
ENDBRANCH  19  35
BRANCH  27  39
ATOM     39  O   UNL     1       1.380   2.580   2.010  0.00  0.00    +0.000 OA
ATOM     40  H   UNL     1       2.112   3.172   2.347  0.00  0.00    +0.000 HD
ENDBRANCH  27  39
TORSDOF 6
