REMARK  Name = 
REMARK  24 active torsions:
REMARK  status: ('A' for Active; 'I' for Inactive)
REMARK    1  A    between atoms: C_1  and  C_2
REMARK    2  A    between atoms: C_4  and  O_5
REMARK    3  A    between atoms: O_5  and  C_6
REMARK    4  A    between atoms: C_7  and  O_8
REMARK    5  A    between atoms: O_8  and  C_9
REMARK    6  A    between atoms: C_12  and  C_13
REMARK    7  A    between atoms: C_17  and  C_18
REMARK    8  A    between atoms: C_27  and  C_28
REMARK    9  A    between atoms: C_32  and  C_33
REMARK   10  A    between atoms: C_32  and  O_34
REMARK   11  A    between atoms: C_37  and  C_38
REMARK   12  A    between atoms: C_39  and  C_40
REMARK   13  A    between atoms: C_39  and  C_41
REMARK   14  A    between atoms: C_44  and  O_45
REMARK   15  A    between atoms: C_46  and  O_47
REMARK   16  A    between atoms: O_47  and  C_48
REMARK   17  A    between atoms: C_50  and  C_51
REMARK   18  A    between atoms: C_51  and  O_52
REMARK   19  A    between atoms: C_53  and  O_54
REMARK   20  A    between atoms: C_55  and  O_56
REMARK   21  A    between atoms: C_57  and  O_58
REMARK   22  A    between atoms: C_59  and  O_60
REMARK   23  A    between atoms: C_61  and  O_62
REMARK   24  A    between atoms: C_63  and  O_64
REMARK                            x       y       z     vdW  Elec       q    Type
REMARK                         _______ _______ _______ _____ _____    ______ ____
ROOT
ATOM      1  C   UNL     1       0.808   0.899  -1.151  0.00  0.00    +0.000 C 
ATOM      2  C   UNL     1       1.958  -0.021  -0.734  0.00  0.00    +0.000 C 
ATOM      3  O   UNL     1       1.628  -0.667   0.498  0.00  0.00    +0.000 OA
ATOM      4  C   UNL     1       0.463  -1.490   0.430  0.00  0.00    +0.000 C 
ATOM      5  C   UNL     1      -0.748  -0.630   0.060  0.00  0.00    +0.000 C 
ATOM      6  C   UNL     1      -0.476   0.072  -1.274  0.00  0.00    +0.000 C 
ENDROOT
BRANCH   5   7
ATOM      7  O   UNL     1      -0.973   0.340   1.073  0.00  0.00    +0.000 OA
ATOM      8  H   UNL     1      -0.165   0.922   1.162  0.00  0.00    +0.000 HD
ENDBRANCH   5   7
BRANCH   6   9
ATOM      9  O   UNL     1      -1.565   0.925  -1.597  0.00  0.00    +0.000 OA
BRANCH   9  10
ATOM     10  C   UNL     1      -1.725   1.897  -0.575  0.00  0.00    +0.000 C 
ATOM     11  O   UNL     1      -2.001   1.251   0.784  0.00  0.00    +0.000 OA
ATOM     12  C   UNL     1      -0.894   0.424   1.151  0.00  0.00    +0.000 C 
ATOM     13  C   UNL     1       0.341   1.130   1.287  0.00  0.00    +0.000 C 
ATOM     14  C   UNL     1       0.711   1.771  -0.052  0.00  0.00    +0.000 C 
ATOM     15  C   UNL     1      -0.423   2.701  -0.494  0.00  0.00    +0.000 C 
BRANCH  15  16
ATOM     16  O   UNL     1      -0.121   3.253  -1.767  0.00  0.00    +0.000 OA
ATOM     17  H   UNL     1      -0.016   2.516  -2.434  0.00  0.00    +0.000 HD
ENDBRANCH  15  16
BRANCH  14  18
ATOM     18  O   UNL     1       0.908   0.759  -1.028  0.00  0.00    +0.000 OA
ATOM     19  H   UNL     1       0.066   0.230  -1.134  0.00  0.00    +0.000 HD
ENDBRANCH  14  18
BRANCH  13  20
ATOM     20  O   UNL     1       1.363   0.225   1.678  0.00  0.00    +0.000 OA
ATOM     21  H   UNL     1       1.460  -0.488   0.983  0.00  0.00    +0.000 HD
ENDBRANCH  13  20
BRANCH  12  22
ATOM     22  C   UNL     1      -0.704  -0.579   0.026  0.00  0.00    +0.000 C 
BRANCH  22  23
ATOM     23  O   UNL     1       0.369  -1.452   0.346  0.00  0.00    +0.000 OA
ATOM     24  H   UNL     1       1.208  -0.920   0.463  0.00  0.00    +0.000 HD
ENDBRANCH  22  23
ENDBRANCH  12  22
ENDBRANCH   9  10
ENDBRANCH   6   9
BRANCH   2  25
ATOM     25  O   UNL     1       2.170  -1.000  -1.740  0.00  0.00    +0.000 OA
BRANCH  25  26
ATOM     26  C   UNL     1       0.988  -1.768  -1.910  0.00  0.00    +0.000 C 
ATOM     27  C   UNL     1       0.542  -2.931  -1.021  0.00  0.00    +0.000 C 
ATOM     28  C   UNL     1      -0.164  -2.420   0.112  0.00  0.00    +0.000 C 
ATOM     29  C   UNL     1      -1.348  -1.693  -0.218  0.00  0.00    +0.000 C 
ATOM     30  C   UNL     1      -2.295  -2.592  -0.995  0.00  0.00    +0.000 C 
ATOM     31  C   UNL     1      -0.979  -0.480  -1.075  0.00  0.00    +0.000 C 
ATOM     32  C   UNL     1      -0.081   0.454  -0.280  0.00  0.00    +0.000 C 
ATOM     33  C   UNL     1       0.285   1.656  -1.135  0.00  0.00    +0.000 C 
ATOM     34  C   UNL     1      -0.981   2.393  -1.541  0.00  0.00    +0.000 C 
ATOM     35  C   UNL     1      -2.235   1.976  -0.790  0.00  0.00    +0.000 C 
ATOM     36  C   UNL     1      -0.973   3.675  -1.141  0.00  0.00    +0.000 C 
ATOM     37  C   UNL     1      -1.251   4.693  -2.010  0.00  0.00    +0.000 C 
ATOM     38  C   UNL     1      -1.531   4.403  -3.314  0.00  0.00    +0.000 C 
ATOM     39  C   UNL     1      -1.534   2.994  -3.731  0.00  0.00    +0.000 C 
ATOM     40  C   UNL     1      -1.813   2.651  -5.018  0.00  0.00    +0.000 C 
ATOM     41  C   UNL     1      -1.908   1.210  -5.525  0.00  0.00    +0.000 C 
ATOM     42  C   UNL     1      -3.218   0.974  -6.044  0.00  0.00    +0.000 C 
ATOM     43  C   UNL     1      -3.566   1.810  -7.149  0.00  0.00    +0.000 C 
ATOM     44  C   UNL     1      -3.539   3.275  -6.708  0.00  0.00    +0.000 C 
ATOM     45  C   UNL     1      -4.579   3.502  -5.622  0.00  0.00    +0.000 C 
ATOM     46  O   UNL     1      -3.830   4.112  -7.818  0.00  0.00    +0.000 OA
ATOM     47  C   UNL     1      -0.879   0.990  -6.622  0.00  0.00    +0.000 C 
ATOM     48  O   UNL     1      -0.921   1.691  -7.681  0.00  0.00    +0.000 OA
ATOM     49  C   UNL     1      -2.146   3.610  -6.165  0.00  0.00    +0.000 C 
ATOM     50  C   UNL     1      -2.123   5.043  -5.659  0.00  0.00    +0.000 C 
ATOM     51  C   UNL     1      -1.637   0.250  -4.378  0.00  0.00    +0.000 C 
ATOM     52  C   UNL     1       0.061   1.467  -3.301  0.00  0.00    +0.000 C 
ATOM     53  C   UNL     1      -1.255   2.046  -2.810  0.00  0.00    +0.000 C 
ATOM     54  C   UNL     1      -2.459   1.119  -2.759  0.00  0.00    +0.000 C 
ATOM     55  C   UNL     1      -0.242  -0.957  -2.331  0.00  0.00    +0.000 C 
ATOM     56  C   UNL     1       0.192   0.242  -3.158  0.00  0.00    +0.000 C 
ATOM     57  C   UNL     1      -1.167  -1.829  -3.163  0.00  0.00    +0.000 C 
BRANCH  49  58
ATOM     58  O   UNL     1      -1.184   3.466  -7.200  0.00  0.00    +0.000 OA
ATOM     59  H   UNL     1      -0.276   3.685  -6.844  0.00  0.00    +0.000 HD
ENDBRANCH  49  58
ENDBRANCH  25  26
ENDBRANCH   2  25
BRANCH   1  60
ATOM     60  O   UNL     1       1.553   2.107  -1.148  0.00  0.00    +0.000 OA
BRANCH  60  64
ATOM     61  C   UNL     1       1.051   0.040  -0.076  0.00  0.00    +0.000 C 
ATOM     62  C   UNL     1       0.545   0.919   1.055  0.00  0.00    +0.000 C 
ATOM     63  O   UNL     1       1.252   2.275   1.113  0.00  0.00    +0.000 OA
ATOM     64  C   UNL     1       1.063   2.963  -0.126  0.00  0.00    +0.000 C 
ATOM     65  C   UNL     1      -0.304   3.238  -0.439  0.00  0.00    +0.000 C 
ATOM     66  C   UNL     1      -1.073   1.921  -0.559  0.00  0.00    +0.000 C 
ATOM     67  C   UNL     1      -0.941   1.140   0.753  0.00  0.00    +0.000 C 
BRANCH  67  68
ATOM     68  O   UNL     1      -1.597  -0.114   0.632  0.00  0.00    +0.000 OA
ATOM     69  H   UNL     1      -1.181  -0.638  -0.110  0.00  0.00    +0.000 HD
ENDBRANCH  67  68
BRANCH  66  70
ATOM     70  O   UNL     1      -0.542   1.152  -1.628  0.00  0.00    +0.000 OA
ATOM     71  H   UNL     1       0.423   0.959  -1.452  0.00  0.00    +0.000 HD
ENDBRANCH  66  70
BRANCH  65  72
ATOM     72  O   UNL     1      -0.376   3.943  -1.669  0.00  0.00    +0.000 OA
ATOM     73  H   UNL     1       0.027   3.386  -2.396  0.00  0.00    +0.000 HD
ENDBRANCH  65  72
ENDBRANCH  60  64
ENDBRANCH   1  60
TORSDOF 16
