REMARK  Name = 
REMARK  11 active torsions:
REMARK  status: ('A' for Active; 'I' for Inactive)
REMARK    1  A    between atoms: C_1  and  S_2
REMARK    2  A    between atoms: S_2  and  C_5
REMARK    3  A    between atoms: C_5  and  C_6
REMARK    4  A    between atoms: C_6  and  N_7
REMARK    5  A    between atoms: N_7  and  C_8
REMARK    6  A    between atoms: C_8  and  C_9
REMARK    7  A    between atoms: C_12  and  C_13
REMARK    8  A    between atoms: N_21  and  C_22
REMARK    9  A    between atoms: C_25  and  O_26
REMARK   10  A    between atoms: O_26  and  C_27
REMARK   11  A    between atoms: C_27  and  C_28
REMARK                            x       y       z     vdW  Elec       q    Type
REMARK                         _______ _______ _______ _____ _____    ______ ____
ROOT
ATOM      1  C   UNL     1      -4.228  -1.597  -2.426  0.00  0.00    +0.000 A 
ATOM      2  C   UNL     1      -5.173  -1.669  -1.385  0.00  0.00    +0.000 A 
ATOM      3  C   UNL     1      -6.280  -0.868  -1.388  0.00  0.00    +0.000 A 
ATOM      4  C   UNL     1      -6.478   0.067  -2.429  0.00  0.00    +0.000 A 
ATOM      5  N   UNL     1      -7.576   0.889  -2.408  0.00  0.00    +0.000 NA
ATOM      6  C   UNL     1      -7.696   1.726  -3.401  0.00  0.00    +0.000 A 
ATOM      7  N   UNL     1      -6.851   1.860  -4.469  0.00  0.00    +0.000 NA
ATOM      8  C   UNL     1      -5.804   1.071  -4.510  0.00  0.00    +0.000 A 
ATOM      9  N   UNL     1      -4.883   1.164  -5.652  0.00  0.00    +0.000 N 
ATOM     10  C   UNL     1      -5.534   0.127  -3.478  0.00  0.00    +0.000 A 
ATOM     11  C   UNL     1      -4.404  -0.722  -3.460  0.00  0.00    +0.000 A 
ATOM     12  H   UNL     1      -4.065   0.558  -5.698  0.00  0.00    +0.000 HD
ENDROOT
BRANCH   9  13
ATOM     13  C   UNL     1      -5.143   2.132  -6.728  0.00  0.00    +0.000 A 
ATOM     14  C   UNL     1      -5.193   3.477  -6.397  0.00  0.00    +0.000 A 
ATOM     15  C   UNL     1      -5.269   4.444  -7.394  0.00  0.00    +0.000 A 
ATOM     16  C   UNL     1      -5.316   4.060  -8.730  0.00  0.00    +0.000 A 
ATOM     17  C   UNL     1      -5.296   2.710  -9.039  0.00  0.00    +0.000 A 
ATOM     18 CL   UNL     1      -5.373   2.241 -10.710  0.00  0.00    +0.000 Cl
ATOM     19  C   UNL     1      -5.180   1.731  -8.063  0.00  0.00    +0.000 A 
BRANCH  16  20
ATOM     20  O   UNL     1      -5.384   5.035  -9.759  0.00  0.00    +0.000 OA
BRANCH  20  21
ATOM     21  C   UNL     1      -5.432   4.630 -11.120  0.00  0.00    +0.000 C 
BRANCH  21  22
ATOM     22  C   UNL     1      -4.184   3.829 -11.454  0.00  0.00    +0.000 A 
ATOM     23  C   UNL     1      -3.019   4.466 -11.770  0.00  0.00    +0.000 A 
ATOM     24  C   UNL     1      -1.905   3.704 -12.088  0.00  0.00    +0.000 A 
ATOM     25  C   UNL     1      -1.972   2.320 -12.097  0.00  0.00    +0.000 A 
ATOM     26  C   UNL     1      -3.140   1.742 -11.763  0.00  0.00    +0.000 A 
ATOM     27  F   UNL     1      -3.211   0.387 -11.766  0.00  0.00    +0.000 F 
ATOM     28  C   UNL     1      -4.250   2.445 -11.440  0.00  0.00    +0.000 A 
ENDBRANCH  21  22
ENDBRANCH  20  21
ENDBRANCH  16  20
ENDBRANCH   9  13
BRANCH   1  32
ATOM     29  C   UNL     1      -0.950  -3.189  -2.379  0.00  0.00    +0.000 A 
ATOM     30  C   UNL     1      -1.694  -4.304  -2.379  0.00  0.00    +0.000 A 
ATOM     31  C   UNL     1      -3.038  -3.855  -2.395  0.00  0.00    +0.000 A 
ATOM     32  C   UNL     1      -3.005  -2.499  -2.400  0.00  0.00    +0.000 A 
ATOM     33  O   UNL     1      -1.703  -2.061  -2.378  0.00  0.00    +0.000 OA
BRANCH  29  34
ATOM     34  C   UNL     1       0.570  -3.189  -2.379  0.00  0.00    +0.000 C 
BRANCH  34  35
ATOM     35  N   UNL     1       1.060  -2.578  -1.135  0.00  0.00    +0.000 NA
ATOM     36  H   UNL     1       0.720  -1.618  -1.071  0.00  0.00    +0.000 HD
BRANCH  35  37
ATOM     37  C   UNL     1       0.570  -3.349   0.016  0.00  0.00    +0.000 C 
BRANCH  37  38
ATOM     38  C   UNL     1       1.076  -2.717   1.302  0.00  0.00    +0.000 C 
BRANCH  38  40
ATOM     39  C   UNL     1       1.076  -0.065  -0.001  0.00  0.00    +0.000 C 
ATOM     40  S   UNL     1       0.473  -1.015   1.416  0.00  0.00    +0.000 S 
ATOM     41  O   UNL     1       0.983  -0.378   2.711  0.00  0.00    +0.000 OA
ATOM     42  O   UNL     1      -1.058  -1.015   1.416  0.00  0.00    +0.000 OA
ENDBRANCH  38  40
ENDBRANCH  37  38
ENDBRANCH  35  37
ENDBRANCH  34  35
ENDBRANCH  29  34
ENDBRANCH   1  32
TORSDOF 10
