
 OpenBabel03132514253D

 58 57  0  0  0  0  0  0  0  0999 V2000
    0.9834   -0.0321   -0.0932 C   0  0  0  0  0  0  0  0  0  0  0  0
    0.4767   -1.2632   -0.8267 C   0  0  0  0  0  0  0  0  0  0  0  0
    0.9834   -2.5140   -0.1273 C   0  0  0  0  0  0  0  0  0  0  0  0
    0.0993   -3.4165    0.3774 C   0  0  0  0  0  0  0  0  0  0  0  0
    0.6060   -4.6673    1.0769 C   0  0  0  0  0  0  0  0  0  0  0  0
    0.0993   -4.6869    2.5098 C   0  0  0  0  0  0  0  0  0  0  0  0
   -0.6828   -5.7132    2.9407 C   0  0  0  0  0  0  0  0  0  0  0  0
   -1.1895   -5.7329    4.3736 C   0  0  0  0  0  0  0  0  0  0  0  0
   -2.7095   -5.7329    4.3736 C   0  0  0  0  0  0  0  0  0  0  0  0
   -3.1828   -6.8830    3.6884 O   0  0  0  0  0  0  0  0  0  0  0  0
   -3.2161   -5.7525    5.8066 C   0  0  0  0  0  0  0  0  0  0  0  0
   -3.9982   -4.7384    6.2655 C   0  0  0  0  0  0  0  0  0  0  0  0
   -4.5049   -4.7581    7.6984 C   0  0  0  0  0  0  0  0  0  0  0  0
   -5.2870   -3.7440    8.1573 C   0  0  0  0  0  0  0  0  0  0  0  0
   -5.7937   -3.7636    9.5902 C   0  0  0  0  0  0  0  0  0  0  0  0
   -6.5758   -2.7495   10.0491 C   0  0  0  0  0  0  0  0  0  0  0  0
   -7.0825   -2.7692   11.4820 C   0  0  0  0  0  0  0  0  0  0  0  0
   -6.6091   -1.6190   12.1673 O   0  0  0  0  0  0  0  0  0  0  0  0
   -8.6025   -2.7692   11.4820 C   0  0  0  0  0  0  0  0  0  0  0  0
   -9.1091   -4.0003   10.7486 C   0  0  0  0  0  0  0  0  0  0  0  0
   -9.8913   -4.9048   11.3974 C   0  0  0  0  0  0  0  0  0  0  0  0
  -10.3979   -6.1359   10.6639 C   0  0  0  0  0  0  0  0  0  0  0  0
   -9.8913   -7.3867   11.3633 C   0  0  0  0  0  0  0  0  0  0  0  0
  -10.3979   -7.4063   12.7962 C   0  0  0  0  0  0  0  0  0  0  0  0
  -11.1286   -8.3651   13.1988 O   0  0  0  0  0  0  0  0  0  0  0  0
  -10.0549   -6.3534   13.6851 O   0  0  0  0  0  0  0  0  0  0  0  0
    0.6267   -0.0459    0.9155 H   0  0  0  0  0  0  0  0  0  0  0  0
    0.6267    0.8484   -0.5856 H   0  0  0  0  0  0  0  0  0  0  0  0
    2.0534   -0.0321   -0.0932 H   0  0  0  0  0  0  0  0  0  0  0  0
   -0.5933   -1.2632   -0.8267 H   0  0  0  0  0  0  0  0  0  0  0  0
    0.8334   -1.2494   -1.8354 H   0  0  0  0  0  0  0  0  0  0  0  0
    2.0353   -2.6847   -0.0318 H   0  0  0  0  0  0  0  0  0  0  0  0
   -0.9527   -3.2458    0.2820 H   0  0  0  0  0  0  0  0  0  0  0  0
    0.2493   -5.5339    0.5605 H   0  0  0  0  0  0  0  0  0  0  0  0
    1.6760   -4.6673    1.0769 H   0  0  0  0  0  0  0  0  0  0  0  0
    0.3578   -3.8936    3.1796 H   0  0  0  0  0  0  0  0  0  0  0  0
   -0.9413   -6.5066    2.2709 H   0  0  0  0  0  0  0  0  0  0  0  0
   -0.8328   -6.6134    4.8660 H   0  0  0  0  0  0  0  0  0  0  0  0
   -0.8328   -4.8662    4.8900 H   0  0  0  0  0  0  0  0  0  0  0  0
   -3.0661   -4.8524    3.8813 H   0  0  0  0  0  0  0  0  0  0  0  0
   -2.8495   -6.8701    2.7457 H   0  0  0  0  0  0  0  0  0  0  0  0
   -2.9576   -6.5640    6.4543 H   0  0  0  0  0  0  0  0  0  0  0  0
   -4.2567   -3.9270    5.6177 H   0  0  0  0  0  0  0  0  0  0  0  0
   -4.2464   -5.5695    8.3462 H   0  0  0  0  0  0  0  0  0  0  0  0
   -5.5455   -2.9325    7.5095 H   0  0  0  0  0  0  0  0  0  0  0  0
   -5.5352   -4.5751   10.2380 H   0  0  0  0  0  0  0  0  0  0  0  0
   -6.8343   -1.9381    9.4013 H   0  0  0  0  0  0  0  0  0  0  0  0
   -6.7258   -3.6497   11.9744 H   0  0  0  0  0  0  0  0  0  0  0  0
   -5.6091   -1.6190   12.1673 H   0  0  0  0  0  0  0  0  0  0  0  0
   -8.9591   -2.7830   12.4908 H   0  0  0  0  0  0  0  0  0  0  0  0
   -8.9591   -1.8887   10.9897 H   0  0  0  0  0  0  0  0  0  0  0  0
   -8.8507   -4.1556    9.7219 H   0  0  0  0  0  0  0  0  0  0  0  0
  -10.1498   -4.7495   12.4240 H   0  0  0  0  0  0  0  0  0  0  0  0
  -11.4679   -6.1359   10.6639 H   0  0  0  0  0  0  0  0  0  0  0  0
  -10.0413   -6.1221    9.6552 H   0  0  0  0  0  0  0  0  0  0  0  0
  -10.2480   -8.2533   10.8470 H   0  0  0  0  0  0  0  0  0  0  0  0
   -8.8213   -7.3867   11.3633 H   0  0  0  0  0  0  0  0  0  0  0  0
  -10.3882   -6.3664   14.6278 H   0  0  0  0  0  0  0  0  0  0  0  0
  1  2  1  0  0  0  0
  1 27  1  0  0  0  0
  1 28  1  0  0  0  0
  1 29  1  0  0  0  0
  2  3  1  0  0  0  0
  2 30  1  0  0  0  0
  2 31  1  0  0  0  0
  3  4  2  0  0  0  0
  3 32  1  0  0  0  0
  4  5  1  0  0  0  0
  4 33  1  0  0  0  0
  5  6  1  0  0  0  0
  5 34  1  0  0  0  0
  5 35  1  0  0  0  0
  6  7  2  0  0  0  0
  6 36  1  0  0  0  0
  7  8  1  0  0  0  0
  7 37  1  0  0  0  0
  8  9  1  0  0  0  0
  8 38  1  0  0  0  0
  8 39  1  0  0  0  0
  9 10  1  0  0  0  0
  9 11  1  0  0  0  0
  9 40  1  0  0  0  0
 10 41  1  0  0  0  0
 11 12  2  0  0  0  0
 11 42  1  0  0  0  0
 12 13  1  0  0  0  0
 12 43  1  0  0  0  0
 13 14  2  0  0  0  0
 13 44  1  0  0  0  0
 14 15  1  0  0  0  0
 14 45  1  0  0  0  0
 15 16  2  0  0  0  0
 15 46  1  0  0  0  0
 16 17  1  0  0  0  0
 16 47  1  0  0  0  0
 17 18  1  0  0  0  0
 17 19  1  0  0  0  0
 17 48  1  0  0  0  0
 18 49  1  0  0  0  0
 19 20  1  0  0  0  0
 19 50  1  0  0  0  0
 19 51  1  0  0  0  0
 20 21  2  0  0  0  0
 20 52  1  0  0  0  0
 21 22  1  0  0  0  0
 21 53  1  0  0  0  0
 22 23  1  0  0  0  0
 22 54  1  0  0  0  0
 22 55  1  0  0  0  0
 23 24  1  0  0  0  0
 23 56  1  0  0  0  0
 23 57  1  0  0  0  0
 24 25  2  0  0  0  0
 24 26  1  0  0  0  0
 26 58  1  0  0  0  0
M  END
