REMARK  Name = 
REMARK  18 active torsions:
REMARK  status: ('A' for Active; 'I' for Inactive)
REMARK    1  A    between atoms: C_1  and  C_2
REMARK    2  A    between atoms: C_2  and  C_3
REMARK    3  A    between atoms: C_4  and  C_5
REMARK    4  A    between atoms: C_5  and  C_6
REMARK    5  A    between atoms: C_7  and  C_8
REMARK    6  A    between atoms: C_8  and  C_9
REMARK    7  A    between atoms: C_9  and  O_10
REMARK    8  A    between atoms: C_9  and  C_11
REMARK    9  A    between atoms: C_12  and  C_13
REMARK   10  A    between atoms: C_14  and  C_15
REMARK   11  A    between atoms: C_16  and  C_17
REMARK   12  A    between atoms: C_17  and  O_18
REMARK   13  A    between atoms: C_17  and  C_19
REMARK   14  A    between atoms: C_19  and  C_20
REMARK   15  A    between atoms: C_21  and  C_22
REMARK   16  A    between atoms: C_22  and  C_23
REMARK   17  A    between atoms: C_23  and  C_24
REMARK   18  A    between atoms: C_24  and  O_26
REMARK                            x       y       z     vdW  Elec       q    Type
REMARK                         _______ _______ _______ _____ _____    ______ ____
ROOT
ATOM      1  C   UNL     1      -4.505  -4.758   7.698  0.00  0.00    +0.000 C 
ATOM      2  C   UNL     1      -5.287  -3.744   8.157  0.00  0.00    +0.000 C 
ENDROOT
BRANCH   2   3
ATOM      3  C   UNL     1      -5.794  -3.764   9.590  0.00  0.00    +0.000 C 
ATOM      4  C   UNL     1      -6.576  -2.749  10.049  0.00  0.00    +0.000 C 
BRANCH   4   5
ATOM      5  C   UNL     1      -7.082  -2.769  11.482  0.00  0.00    +0.000 C 
BRANCH   5   6
ATOM      6  O   UNL     1      -6.609  -1.619  12.167  0.00  0.00    +0.000 OA
ATOM      7  H   UNL     1      -5.609  -1.619  12.167  0.00  0.00    +0.000 HD
ENDBRANCH   5   6
BRANCH   5   8
ATOM      8  C   UNL     1      -8.602  -2.769  11.482  0.00  0.00    +0.000 C 
BRANCH   8   9
ATOM      9  C   UNL     1      -9.109  -4.000  10.749  0.00  0.00    +0.000 C 
ATOM     10  C   UNL     1      -9.891  -4.905  11.397  0.00  0.00    +0.000 C 
BRANCH  10  11
ATOM     11  C   UNL     1     -10.398  -6.136  10.664  0.00  0.00    +0.000 C 
BRANCH  11  12
ATOM     12  C   UNL     1      -9.891  -7.387  11.363  0.00  0.00    +0.000 C 
BRANCH  12  13
ATOM     13  C   UNL     1     -10.398  -7.406  12.796  0.00  0.00    +0.000 C 
ATOM     14  O   UNL     1     -11.129  -8.365  13.199  0.00  0.00    +0.000 OA
BRANCH  13  15
ATOM     15  O   UNL     1     -10.055  -6.353  13.685  0.00  0.00    +0.000 OA
ATOM     16  H   UNL     1     -10.388  -6.366  14.628  0.00  0.00    +0.000 HD
ENDBRANCH  13  15
ENDBRANCH  12  13
ENDBRANCH  11  12
ENDBRANCH  10  11
ENDBRANCH   8   9
ENDBRANCH   5   8
ENDBRANCH   4   5
ENDBRANCH   2   3
BRANCH   1  18
ATOM     17  C   UNL     1      -3.216  -5.753   5.807  0.00  0.00    +0.000 C 
ATOM     18  C   UNL     1      -3.998  -4.738   6.266  0.00  0.00    +0.000 C 
BRANCH  17  19
ATOM     19  C   UNL     1      -2.709  -5.733   4.374  0.00  0.00    +0.000 C 
BRANCH  19  20
ATOM     20  O   UNL     1      -3.183  -6.883   3.688  0.00  0.00    +0.000 OA
ATOM     21  H   UNL     1      -2.849  -6.870   2.746  0.00  0.00    +0.000 HD
ENDBRANCH  19  20
BRANCH  19  22
ATOM     22  C   UNL     1      -1.190  -5.733   4.374  0.00  0.00    +0.000 C 
BRANCH  22  24
ATOM     23  C   UNL     1       0.099  -4.687   2.510  0.00  0.00    +0.000 C 
ATOM     24  C   UNL     1      -0.683  -5.713   2.941  0.00  0.00    +0.000 C 
BRANCH  23  25
ATOM     25  C   UNL     1       0.606  -4.667   1.077  0.00  0.00    +0.000 C 
BRANCH  25  27
ATOM     26  C   UNL     1       0.983  -2.514  -0.127  0.00  0.00    +0.000 C 
ATOM     27  C   UNL     1       0.099  -3.417   0.377  0.00  0.00    +0.000 C 
BRANCH  26  29
ATOM     28  C   UNL     1       0.983  -0.032  -0.093  0.00  0.00    +0.000 C 
ATOM     29  C   UNL     1       0.477  -1.263  -0.827  0.00  0.00    +0.000 C 
ENDBRANCH  26  29
ENDBRANCH  25  27
ENDBRANCH  23  25
ENDBRANCH  22  24
ENDBRANCH  19  22
ENDBRANCH  17  19
ENDBRANCH   1  18
TORSDOF 17
