REMARK  Name = 
REMARK  5 active torsions:
REMARK  status: ('A' for Active; 'I' for Inactive)
REMARK    1  A    between atoms: O_1  and  C_2
REMARK    2  A    between atoms: C_6  and  O_7
REMARK    3  A    between atoms: O_7  and  C_8
REMARK    4  A    between atoms: C_12  and  C_13
REMARK    5  A    between atoms: C_16  and  C_17
REMARK                            x       y       z     vdW  Elec       q    Type
REMARK                         _______ _______ _______ _____ _____    ______ ____
ROOT
ATOM      1  C   UNL     1       2.371  -4.312   2.866  0.00  0.00    +0.000 A 
ATOM      2  N   UNL     1       1.901  -3.759   3.946  0.00  0.00    +0.000 NA
ATOM      3  C   UNL     1       2.984  -2.997   4.567  0.00  0.00    +0.000 A 
ATOM      4  N   UNL     1       3.077  -2.211   5.720  0.00  0.00    +0.000 NA
ATOM      5  C   UNL     1       4.277  -1.609   6.041  0.00  0.00    +0.000 A 
ATOM      6  C   UNL     1       5.391  -1.777   5.218  0.00  0.00    +0.000 A 
ATOM      7 CL   UNL     1       6.927  -0.982   5.637  0.00  0.00    +0.000 Cl
ATOM      8  C   UNL     1       5.312  -2.554   4.083  0.00  0.00    +0.000 A 
ATOM      9  C   UNL     1       4.111  -3.168   3.745  0.00  0.00    +0.000 A 
ATOM     10  N   UNL     1       3.719  -3.980   2.701  0.00  0.00    +0.000 N 
ATOM     11  H   UNL     1       4.315  -4.288   1.933  0.00  0.00    +0.000 HD
ENDROOT
BRANCH   5  12
ATOM     12  C   UNL     1       4.386  -0.760   7.296  0.00  0.00    +0.000 A 
ATOM     13  C   UNL     1       4.218  -1.337   8.539  0.00  0.00    +0.000 A 
ATOM     14  C   UNL     1       4.387  -0.626   9.643  0.00  0.00    +0.000 A 
ATOM     15  C   UNL     1       4.726   0.651   9.600  0.00  0.00    +0.000 A 
ATOM     16  C   UNL     1       4.911   1.293   8.391  0.00  0.00    +0.000 A 
ATOM     17  C   UNL     1       4.736   0.580   7.214  0.00  0.00    +0.000 A 
BRANCH  15  18
ATOM     18  C   UNL     1       4.916   1.422  10.897  0.00  0.00    +0.000 A 
ATOM     19  C   UNL     1       5.951   1.085  11.745  0.00  0.00    +0.000 A 
ATOM     20  C   UNL     1       6.209   1.812  12.821  0.00  0.00    +0.000 A 
ATOM     21  C   UNL     1       5.495   2.885  13.119  0.00  0.00    +0.000 A 
ATOM     22  C   UNL     1       4.444   3.280  12.315  0.00  0.00    +0.000 A 
ATOM     23  C   UNL     1       4.142   2.538  11.183  0.00  0.00    +0.000 A 
ENDBRANCH  15  18
ENDBRANCH   5  12
BRANCH   1  24
ATOM     24  O   UNL     1       1.646  -5.035   1.882  0.00  0.00    +0.000 OA
BRANCH  24  29
ATOM     25  C   UNL     1       0.493  -0.927   1.002  0.00  0.00    +0.000 C 
ATOM     26  C   UNL     1       1.523  -1.271   1.792  0.00  0.00    +0.000 C 
ATOM     27  O   UNL     1       2.161  -2.470   1.271  0.00  0.00    +0.000 OA
ATOM     28  C   UNL     1       1.103  -3.192   0.415  0.00  0.00    +0.000 C 
ATOM     29  C   UNL     1       0.594  -4.403   1.168  0.00  0.00    +0.000 C 
ATOM     30  C   UNL     1      -0.375  -3.964   2.018  0.00  0.00    +0.000 C 
ATOM     31  O   UNL     1      -1.064  -2.821   1.438  0.00  0.00    +0.000 OA
ATOM     32  C   UNL     1      -0.092  -2.197   0.419  0.00  0.00    +0.000 C 
BRANCH  25  33
ATOM     33  O   UNL     1       0.967  -0.086  -0.039  0.00  0.00    +0.000 OA
ATOM     34  H   UNL     1       1.967  -0.086  -0.039  0.00  0.00    +0.000 HD
ENDBRANCH  25  33
ENDBRANCH  24  29
ENDBRANCH   1  24
TORSDOF 5
