
 OpenBabel03132514253D

 52 57  0  0  0  0  0  0  0  0999 V2000
    0.9667   -0.0857   -0.0393 O   0  0  0  0  0  0  0  0  0  0  0  0
    0.4933   -0.9271    1.0020 C   0  0  0  0  0  0  0  0  0  0  0  0
    1.5231   -1.2707    1.7923 C   0  0  0  0  0  0  0  0  0  0  0  0
    2.1612   -2.4698    1.2711 O   0  0  0  0  0  0  0  0  0  0  0  0
    1.1029   -3.1915    0.4151 C   0  0  0  0  0  0  0  0  0  0  0  0
    0.5939   -4.4027    1.1684 C   0  0  0  0  0  0  0  0  0  0  0  0
    1.6461   -5.0351    1.8821 O   0  0  0  0  0  0  0  0  0  0  0  0
    2.3708   -4.3125    2.8665 C   0  0  0  0  0  0  0  0  0  0  0  0
    1.9014   -3.7586    3.9460 N   0  0  0  0  0  0  0  0  0  0  0  0
    2.9839   -2.9972    4.5674 C   0  0  0  0  0  0  0  0  0  0  0  0
    3.0767   -2.2111    5.7198 N   0  0  0  0  0  0  0  0  0  0  0  0
    4.2773   -1.6093    6.0406 C   0  0  0  0  0  0  0  0  0  0  0  0
    4.3859   -0.7597    7.2964 C   0  0  0  0  0  0  0  0  0  0  0  0
    4.2180   -1.3367    8.5392 C   0  0  0  0  0  0  0  0  0  0  0  0
    4.3871   -0.6264    9.6434 C   0  0  0  0  0  0  0  0  0  0  0  0
    4.7265    0.6511    9.6004 C   0  0  0  0  0  0  0  0  0  0  0  0
    4.9157    1.4220   10.8966 C   0  0  0  0  0  0  0  0  0  0  0  0
    5.9512    1.0847   11.7451 C   0  0  0  0  0  0  0  0  0  0  0  0
    6.2087    1.8121   12.8207 C   0  0  0  0  0  0  0  0  0  0  0  0
    5.4947    2.8845   13.1194 C   0  0  0  0  0  0  0  0  0  0  0  0
    4.4437    3.2805   12.3149 C   0  0  0  0  0  0  0  0  0  0  0  0
    4.1421    2.5376   11.1828 C   0  0  0  0  0  0  0  0  0  0  0  0
    4.9110    1.2931    8.3911 C   0  0  0  0  0  0  0  0  0  0  0  0
    4.7360    0.5803    7.2139 C   0  0  0  0  0  0  0  0  0  0  0  0
    5.3911   -1.7774    5.2176 C   0  0  0  0  0  0  0  0  0  0  0  0
    6.9273   -0.9821    5.6374 Cl  0  0  0  0  0  0  0  0  0  0  0  0
    5.3116   -2.5536    4.0833 C   0  0  0  0  0  0  0  0  0  0  0  0
    4.1113   -3.1680    3.7448 C   0  0  0  0  0  0  0  0  0  0  0  0
    3.7187   -3.9803    2.7007 N   0  0  0  0  0  0  0  0  0  0  0  0
   -0.3750   -3.9640    2.0184 C   0  0  0  0  0  0  0  0  0  0  0  0
   -1.0640   -2.8214    1.4382 O   0  0  0  0  0  0  0  0  0  0  0  0
   -0.0923   -2.1972    0.4188 C   0  0  0  0  0  0  0  0  0  0  0  0
    1.9667   -0.0857   -0.0393 H   0  0  0  0  0  0  0  0  0  0  0  0
   -0.2550   -0.4014    1.5574 H   0  0  0  0  0  0  0  0  0  0  0  0
    2.2345   -0.4718    1.8154 H   0  0  0  0  0  0  0  0  0  0  0  0
    1.1641   -1.4604    2.7823 H   0  0  0  0  0  0  0  0  0  0  0  0
    1.4831   -3.4718   -0.5450 H   0  0  0  0  0  0  0  0  0  0  0  0
    0.1863   -5.1169    0.4837 H   0  0  0  0  0  0  0  0  0  0  0  0
    3.9481   -2.3697    8.6108 H   0  0  0  0  0  0  0  0  0  0  0  0
    4.2458   -1.0973   10.5938 H   0  0  0  0  0  0  0  0  0  0  0  0
    6.5522    0.2258   11.5309 H   0  0  0  0  0  0  0  0  0  0  0  0
    7.0141    1.5254   13.4642 H   0  0  0  0  0  0  0  0  0  0  0  0
    5.7339    3.4521   13.9943 H   0  0  0  0  0  0  0  0  0  0  0  0
    3.8697    4.1490   12.5619 H   0  0  0  0  0  0  0  0  0  0  0  0
    3.3308    2.8189   10.5444 H   0  0  0  0  0  0  0  0  0  0  0  0
    5.1854    2.3269    8.3628 H   0  0  0  0  0  0  0  0  0  0  0  0
    4.8681    1.0535    6.2633 H   0  0  0  0  0  0  0  0  0  0  0  0
    6.1732   -2.6838    3.4624 H   0  0  0  0  0  0  0  0  0  0  0  0
    4.3150   -4.2884    1.9326 H   0  0  0  0  0  0  0  0  0  0  0  0
    0.0752   -3.6707    2.9437 H   0  0  0  0  0  0  0  0  0  0  0  0
   -1.0782   -4.7517    2.1914 H   0  0  0  0  0  0  0  0  0  0  0  0
   -0.5652   -2.0110   -0.5228 H   0  0  0  0  0  0  0  0  0  0  0  0
  1  2  1  0  0  0  0
  1 33  1  0  0  0  0
  2  3  1  0  0  0  0
  2 32  1  0  0  0  0
  2 34  1  0  0  0  0
  3  4  1  0  0  0  0
  3 35  1  0  0  0  0
  3 36  1  0  0  0  0
  4  5  1  0  0  0  0
  5  6  1  0  0  0  0
  5 32  1  0  0  0  0
  5 37  1  0  0  0  0
  6  7  1  0  0  0  0
  6 30  1  0  0  0  0
  6 38  1  0  0  0  0
  7  8  1  0  0  0  0
  8  9  2  0  0  0  0
  8 29  1  0  0  0  0
  9 10  1  0  0  0  0
 10 11  1  0  0  0  0
 10 28  2  0  0  0  0
 11 12  2  0  0  0  0
 12 13  1  0  0  0  0
 12 25  1  0  0  0  0
 13 14  1  0  0  0  0
 13 24  2  0  0  0  0
 14 15  2  0  0  0  0
 14 39  1  0  0  0  0
 15 16  1  0  0  0  0
 15 40  1  0  0  0  0
 16 17  1  0  0  0  0
 16 23  2  0  0  0  0
 17 18  1  0  0  0  0
 17 22  2  0  0  0  0
 18 19  2  0  0  0  0
 18 41  1  0  0  0  0
 19 20  1  0  0  0  0
 19 42  1  0  0  0  0
 20 21  2  0  0  0  0
 20 43  1  0  0  0  0
 21 22  1  0  0  0  0
 21 44  1  0  0  0  0
 22 45  1  0  0  0  0
 23 24  1  0  0  0  0
 23 46  1  0  0  0  0
 24 47  1  0  0  0  0
 25 26  1  0  0  0  0
 25 27  2  0  0  0  0
 27 28  1  0  0  0  0
 27 48  1  0  0  0  0
 28 29  1  0  0  0  0
 29 49  1  0  0  0  0
 30 31  1  0  0  0  0
 30 50  1  0  0  0  0
 30 51  1  0  0  0  0
 31 32  1  0  0  0  0
 32 52  1  0  0  0  0
M  END
