REMARK  Name = 
REMARK  8 active torsions:
REMARK  status: ('A' for Active; 'I' for Inactive)
REMARK    1  A    between atoms: C_2  and  C_3
REMARK    2  A    between atoms: C_3  and  C_4
REMARK    3  A    between atoms: C_7  and  O_8
REMARK    4  A    between atoms: O_8  and  C_9
REMARK    5  A    between atoms: C_11  and  C_12
REMARK    6  A    between atoms: C_12  and  C_13
REMARK    7  A    between atoms: C_16  and  O_17
REMARK    8  A    between atoms: C_18  and  O_19
REMARK                            x       y       z     vdW  Elec       q    Type
REMARK                         _______ _______ _______ _____ _____    ______ ____
ROOT
ATOM      1  C   UNL     1      -3.464  -2.455  -6.458  0.00  0.00    +0.000 A 
ATOM      2  C   UNL     1      -2.733  -2.788  -7.586  0.00  0.00    +0.000 A 
ATOM      3  C   UNL     1      -3.171  -3.973  -8.224  0.00  0.00    +0.000 A 
ATOM      4  C   UNL     1      -3.936  -4.889  -7.658  0.00  0.00    +0.000 A 
ATOM      5  C   UNL     1      -4.577  -4.521  -6.508  0.00  0.00    +0.000 A 
ATOM      6  C   UNL     1      -4.299  -3.322  -5.897  0.00  0.00    +0.000 A 
ENDROOT
BRANCH   5   7
ATOM      7  O   UNL     1      -5.545  -5.389  -5.938  0.00  0.00    +0.000 OA
ATOM      8  H   UNL     1      -6.019  -5.126  -5.097  0.00  0.00    +0.000 HD
ENDBRANCH   5   7
BRANCH   6   9
ATOM      9  O   UNL     1      -4.909  -3.008  -4.654  0.00  0.00    +0.000 OA
ATOM     10  H   UNL     1      -4.709  -2.137  -4.205  0.00  0.00    +0.000 HD
ENDBRANCH   6   9
BRANCH   1  11
ATOM     11  O   UNL     1      -3.329  -1.200  -5.808  0.00  0.00    +0.000 OA
BRANCH  11  15
ATOM     12  C   UNL     1      -1.746  -1.007  -1.954  0.00  0.00    +0.000 A 
ATOM     13  C   UNL     1      -1.995   0.176  -2.630  0.00  0.00    +0.000 A 
ATOM     14  C   UNL     1      -2.727   0.008  -3.829  0.00  0.00    +0.000 A 
ATOM     15  C   UNL     1      -2.866  -1.140  -4.467  0.00  0.00    +0.000 A 
ATOM     16  C   UNL     1      -2.538  -2.268  -3.767  0.00  0.00    +0.000 A 
ATOM     17  C   UNL     1      -1.940  -2.185  -2.533  0.00  0.00    +0.000 A 
BRANCH  12  18
ATOM     18  C   UNL     1      -1.240  -0.954  -0.522  0.00  0.00    +0.000 C 
BRANCH  18  20
ATOM     19  C   UNL     1       0.961   0.087   0.030  0.00  0.00    +0.000 C 
ATOM     20  C   UNL     1       0.281  -0.954  -0.522  0.00  0.00    +0.000 C 
ENDBRANCH  18  20
ENDBRANCH  12  18
ENDBRANCH  11  15
ENDBRANCH   1  11
BRANCH   3  21
ATOM     21  C   UNL     1      -2.732  -4.207  -9.660  0.00  0.00    +0.000 C 
BRANCH  21  22
ATOM     22  C   UNL     1      -3.237  -3.073 -10.536  0.00  0.00    +0.000 C 
ATOM     23  C   UNL     1      -2.354  -2.297 -11.220  0.00  0.00    +0.000 C 
ENDBRANCH  21  22
ENDBRANCH   3  21
TORSDOF 8
