REMARK  Name = 
REMARK  6 active torsions:
REMARK  status: ('A' for Active; 'I' for Inactive)
REMARK    1  A    between atoms: C_1  and  O_2
REMARK    2  A    between atoms: O_2  and  C_3
REMARK    3  A    between atoms: C_13  and  C_14
REMARK    4  A    between atoms: C_14  and  C_15
REMARK    5  A    between atoms: C_16  and  C_17
REMARK    6  A    between atoms: C_16  and  C_18
REMARK                            x       y       z     vdW  Elec       q    Type
REMARK                         _______ _______ _______ _____ _____    ______ ____
ROOT
ATOM      1  C   UNL     1       0.848   1.007   2.201  0.00  0.00    +0.000 A 
ATOM      2  C   UNL     1      -0.128   1.290   3.136  0.00  0.00    +0.000 A 
ATOM      3  C   UNL     1       0.195   1.355   4.472  0.00  0.00    +0.000 A 
ATOM      4  C   UNL     1       1.501   1.113   4.898  0.00  0.00    +0.000 A 
ATOM      5  C   UNL     1       1.936   1.196   6.257  0.00  0.00    +0.000 A 
ATOM      6  C   UNL     1       3.205   0.919   6.616  0.00  0.00    +0.000 A 
ATOM      7  C   UNL     1       4.158   0.453   5.604  0.00  0.00    +0.000 A 
ATOM      8  O   UNL     1       5.249   0.007   5.791  0.00  0.00    +0.000 OA
ATOM      9  O   UNL     1       3.742   0.511   4.292  0.00  0.00    +0.000 OA
ATOM     10  C   UNL     1       2.455   0.806   3.932  0.00  0.00    +0.000 A 
ATOM     11  C   UNL     1       2.139   0.765   2.581  0.00  0.00    +0.000 A 
ENDROOT
BRANCH   1  13
ATOM     12  C   UNL     1       0.979  -0.098   0.007  0.00  0.00    +0.000 C 
ATOM     13  O   UNL     1       0.505   0.963   0.824  0.00  0.00    +0.000 OA
ENDBRANCH   1  13
BRANCH  11  14
ATOM     14  C   UNL     1       3.207   0.458   1.545  0.00  0.00    +0.000 C 
BRANCH  14  15
ATOM     15  C   UNL     1       2.821  -0.794   0.774  0.00  0.00    +0.000 C 
ATOM     16  C   UNL     1       2.643  -0.735  -0.573  0.00  0.00    +0.000 C 
ATOM     17  C   UNL     1       2.256  -1.987  -1.344  0.00  0.00    +0.000 C 
ATOM     18  C   UNL     1       2.831   0.582  -1.308  0.00  0.00    +0.000 C 
ENDBRANCH  14  15
ENDBRANCH  11  14
TORSDOF 3
