
 OpenBabel03132514253D

 51 52  0  0  0  0  0  0  0  0999 V2000
    1.0074   -0.0408   -0.0910 C   0  0  0  0  0  0  0  0  0  0  0  0
    0.3272    0.9608   -0.7114 C   0  0  0  0  0  0  0  0  0  0  0  0
   -1.1928    0.9608   -0.7114 C   0  0  0  0  0  0  0  0  0  0  0  0
    1.0872    2.0799   -1.4046 C   0  0  0  0  0  0  0  0  0  0  0  0
    1.2200    3.3032   -0.5426 C   0  0  0  0  0  0  0  0  0  0  0  0
    1.9581    3.2867    0.5970 C   0  0  0  0  0  0  0  0  0  0  0  0
    2.3944    2.7279    1.9415 C   0  0  0  0  0  0  0  0  0  0  0  0
    2.6491    2.1409    0.9294 C   0  0  0  0  0  0  0  0  0  0  0  0
    2.8891    1.1653    0.0112 C   0  0  0  0  0  0  0  0  0  0  0  0
    2.4121    1.3161   -1.4102 C   0  0  0  0  0  0  0  0  0  0  0  0
    3.0115    0.8806   -2.4427 O   0  0  0  0  0  0  0  0  0  0  0  0
    3.2632    1.9328    2.5741 C   0  0  0  0  0  0  0  0  0  0  0  0
    3.7155    3.6621    2.8941 C   0  0  0  0  0  0  0  0  0  0  0  0
    2.5056    4.4709    2.7130 C   0  0  0  0  0  0  0  0  0  0  0  0
    1.4989    3.8510    3.4995 O   0  0  0  0  0  0  0  0  0  0  0  0
    1.0962    2.5191    3.2162 C   0  0  0  0  0  0  0  0  0  0  0  0
    1.6369    1.8819    2.2587 O   0  0  0  0  0  0  0  0  0  0  0  0
    0.0186    1.8555    4.0581 C   0  0  0  0  0  0  0  0  0  0  0  0
   -0.6280    2.6177    5.2033 C   0  0  0  0  0  0  0  0  0  0  0  0
   -0.3672    0.5795    3.7867 C   0  0  0  0  0  0  0  0  0  0  0  0
    0.2794   -0.1826    2.6415 C   0  0  0  0  0  0  0  0  0  0  0  0
    1.9887    4.5158    1.3702 C   0  0  0  0  0  0  0  0  0  0  0  0
    0.5236    4.8792    1.5481 C   0  0  0  0  0  0  0  0  0  0  0  0
    0.4724   -0.8285    0.3969 H   0  0  0  0  0  0  0  0  0  0  0  0
    2.0774   -0.0408   -0.0910 H   0  0  0  0  0  0  0  0  0  0  0  0
   -1.5495    1.8497   -0.2343 H   0  0  0  0  0  0  0  0  0  0  0  0
   -1.5495    0.9296   -1.7197 H   0  0  0  0  0  0  0  0  0  0  0  0
   -1.5495    0.1032   -0.1802 H   0  0  0  0  0  0  0  0  0  0  0  0
    0.6814    2.4560   -2.3204 H   0  0  0  0  0  0  0  0  0  0  0  0
    1.7755    3.9693   -1.1692 H   0  0  0  0  0  0  0  0  0  0  0  0
    0.2272    3.5811   -0.2563 H   0  0  0  0  0  0  0  0  0  0  0  0
    1.5578    2.7093    2.6084 H   0  0  0  0  0  0  0  0  0  0  0  0
    2.7682    1.7339    1.8104 H   0  0  0  0  0  0  0  0  0  0  0  0
    3.1643    3.3472    2.3523 H   0  0  0  0  0  0  0  0  0  0  0  0
    3.4211    0.2834    0.3013 H   0  0  0  0  0  0  0  0  0  0  0  0
    2.5890    1.4860    3.2745 H   0  0  0  0  0  0  0  0  0  0  0  0
    4.1093    1.2789    2.6113 H   0  0  0  0  0  0  0  0  0  0  0  0
    4.1013    3.7751    3.8858 H   0  0  0  0  0  0  0  0  0  0  0  0
    4.4721    3.9760    2.2057 H   0  0  0  0  0  0  0  0  0  0  0  0
    2.7301    5.4729    3.0140 H   0  0  0  0  0  0  0  0  0  0  0  0
   -1.6808    2.6974    5.0292 H   0  0  0  0  0  0  0  0  0  0  0  0
   -0.4568    2.0951    6.1211 H   0  0  0  0  0  0  0  0  0  0  0  0
   -0.2017    3.5971    5.2656 H   0  0  0  0  0  0  0  0  0  0  0  0
   -1.1257    0.1124    4.3793 H   0  0  0  0  0  0  0  0  0  0  0  0
    0.7541   -1.0629    3.0219 H   0  0  0  0  0  0  0  0  0  0  0  0
   -0.4698   -0.4606    1.9300 H   0  0  0  0  0  0  0  0  0  0  0  0
    1.0093    0.4391    2.1664 H   0  0  0  0  0  0  0  0  0  0  0  0
    2.5859    5.2167    0.8253 H   0  0  0  0  0  0  0  0  0  0  0  0
    0.4477    5.8061    2.0773 H   0  0  0  0  0  0  0  0  0  0  0  0
    0.0614    4.9777    0.5882 H   0  0  0  0  0  0  0  0  0  0  0  0
    0.0302    4.1097    2.1043 H   0  0  0  0  0  0  0  0  0  0  0  0
  1  2  2  0  0  0  0
  1 24  1  0  0  0  0
  1 25  1  0  0  0  0
  2  3  1  0  0  0  0
  2  4  1  0  0  0  0
  3 26  1  0  0  0  0
  3 27  1  0  0  0  0
  3 28  1  0  0  0  0
  4  5  1  0  0  0  0
  4 10  1  0  0  0  0
  4 29  1  0  0  0  0
  5  6  1  0  0  0  0
  5 30  1  0  0  0  0
  5 31  1  0  0  0  0
  6  7  1  0  0  0  0
  6  8  1  0  0  0  0
  6 22  1  0  0  0  0
  7 32  1  0  0  0  0
  7 33  1  0  0  0  0
  7 34  1  0  0  0  0
  8  9  2  0  0  0  0
  8 12  1  0  0  0  0
  9 10  1  0  0  0  0
  9 35  1  0  0  0  0
 10 11  2  0  0  0  0
 12 13  1  0  0  0  0
 12 36  1  0  0  0  0
 12 37  1  0  0  0  0
 13 14  1  0  0  0  0
 13 38  1  0  0  0  0
 13 39  1  0  0  0  0
 14 15  1  0  0  0  0
 14 22  1  0  0  0  0
 14 40  1  0  0  0  0
 15 16  1  0  0  0  0
 16 17  2  0  0  0  0
 16 18  1  0  0  0  0
 18 19  1  0  0  0  0
 18 20  2  0  0  0  0
 19 41  1  0  0  0  0
 19 42  1  0  0  0  0
 19 43  1  0  0  0  0
 20 21  1  0  0  0  0
 20 44  1  0  0  0  0
 21 45  1  0  0  0  0
 21 46  1  0  0  0  0
 21 47  1  0  0  0  0
 22 23  1  0  0  0  0
 22 48  1  0  0  0  0
 23 49  1  0  0  0  0
 23 50  1  0  0  0  0
 23 51  1  0  0  0  0
M  END
