REMARK  Name = 
REMARK  9 active torsions:
REMARK  status: ('A' for Active; 'I' for Inactive)
REMARK    1  A    between atoms: C_2  and  C_3
REMARK    2  A    between atoms: C_2  and  C_4
REMARK    3  A    between atoms: C_6  and  C_7
REMARK    4  A    between atoms: C_14  and  O_15
REMARK    5  A    between atoms: O_15  and  C_16
REMARK    6  A    between atoms: C_16  and  C_18
REMARK    7  A    between atoms: C_18  and  C_19
REMARK    8  A    between atoms: C_20  and  C_21
REMARK    9  A    between atoms: C_22  and  C_23
REMARK                            x       y       z     vdW  Elec       q    Type
REMARK                         _______ _______ _______ _____ _____    ______ ____
ROOT
ATOM      1  C   UNL     1       1.087   2.080  -1.405  0.00  0.00    +0.000 C 
ATOM      2  C   UNL     1       1.220   3.303  -0.543  0.00  0.00    +0.000 C 
ATOM      3  C   UNL     1       1.958   3.287   0.597  0.00  0.00    +0.000 C 
ATOM      4  C   UNL     1       2.394   2.728   1.942  0.00  0.00    +0.000 C 
ATOM      5  C   UNL     1       2.649   2.141   0.929  0.00  0.00    +0.000 C 
ATOM      6  C   UNL     1       2.889   1.165   0.011  0.00  0.00    +0.000 C 
ATOM      7  C   UNL     1       2.412   1.316  -1.410  0.00  0.00    +0.000 C 
ATOM      8  O   UNL     1       3.011   0.881  -2.443  0.00  0.00    +0.000 OA
ATOM      9  C   UNL     1       3.263   1.933   2.574  0.00  0.00    +0.000 C 
ATOM     10  C   UNL     1       3.716   3.662   2.894  0.00  0.00    +0.000 C 
ATOM     11  C   UNL     1       2.506   4.471   2.713  0.00  0.00    +0.000 C 
ATOM     12  C   UNL     1       1.989   4.516   1.370  0.00  0.00    +0.000 C 
ATOM     13  C   UNL     1       0.524   4.879   1.548  0.00  0.00    +0.000 C 
ENDROOT
BRANCH   1  15
ATOM     14  C   UNL     1       1.007  -0.041  -0.091  0.00  0.00    +0.000 C 
ATOM     15  C   UNL     1       0.327   0.961  -0.711  0.00  0.00    +0.000 C 
ATOM     16  C   UNL     1      -1.193   0.961  -0.711  0.00  0.00    +0.000 C 
ENDBRANCH   1  15
BRANCH  11  17
ATOM     17  O   UNL     1       1.499   3.851   3.499  0.00  0.00    +0.000 OA
BRANCH  17  18
ATOM     18  C   UNL     1       1.096   2.519   3.216  0.00  0.00    +0.000 C 
ATOM     19  O   UNL     1       1.637   1.882   2.259  0.00  0.00    +0.000 OA
BRANCH  18  20
ATOM     20  C   UNL     1       0.019   1.855   4.058  0.00  0.00    +0.000 C 
ATOM     21  C   UNL     1      -0.628   2.618   5.203  0.00  0.00    +0.000 C 
ATOM     22  C   UNL     1      -0.367   0.580   3.787  0.00  0.00    +0.000 C 
ATOM     23  C   UNL     1       0.279  -0.183   2.642  0.00  0.00    +0.000 C 
ENDBRANCH  18  20
ENDBRANCH  17  18
ENDBRANCH  11  17
TORSDOF 4
