REMARK  Name = 
REMARK  6 active torsions:
REMARK  status: ('A' for Active; 'I' for Inactive)
REMARK    1  A    between atoms: O_1  and  C_2
REMARK    2  A    between atoms: C_4  and  O_5
REMARK    3  A    between atoms: C_7  and  C_8
REMARK    4  A    between atoms: C_9  and  C_10
REMARK    5  A    between atoms: C_13  and  O_14
REMARK    6  A    between atoms: C_15  and  O_16
REMARK                            x       y       z     vdW  Elec       q    Type
REMARK                         _______ _______ _______ _____ _____    ______ ____
ROOT
ATOM      1  C   UNL     1      -0.038   3.343  -0.002  0.00  0.00    +0.000 C 
ATOM      2  C   UNL     1      -1.225   4.008   0.018  0.00  0.00    +0.000 C 
ENDROOT
BRANCH   1   7
ATOM      3  C   UNL     1       1.192  -0.248  -0.013  0.00  0.00    +0.000 A 
ATOM      4  C   UNL     1       0.015  -0.975  -0.011  0.00  0.00    +0.000 A 
ATOM      5  C   UNL     1      -1.185  -0.272   0.008  0.00  0.00    +0.000 A 
ATOM      6  C   UNL     1      -1.212   1.094   0.022  0.00  0.00    +0.000 A 
ATOM      7  C   UNL     1      -0.018   1.823   0.000  0.00  0.00    +0.000 A 
ATOM      8  C   UNL     1       1.194   1.126  -0.020  0.00  0.00    +0.000 A 
BRANCH   3   9
ATOM      9  O   UNL     1       2.391  -0.953   0.017  0.00  0.00    +0.000 OA
ATOM     10  H   UNL     1       3.261  -0.460   0.017  0.00  0.00    +0.000 HD
ENDBRANCH   3   9
BRANCH   5  11
ATOM     11  O   UNL     1      -2.381  -0.959  -0.007  0.00  0.00    +0.000 OA
ATOM     12  H   UNL     1      -3.246  -0.457   0.007  0.00  0.00    +0.000 HD
ENDBRANCH   5  11
ENDBRANCH   1   7
BRANCH   2  13
ATOM     13  C   UNL     1      -1.245   5.527   0.015  0.00  0.00    +0.000 A 
ATOM     14  C   UNL     1      -0.411   6.234  -0.858  0.00  0.00    +0.000 A 
ATOM     15  C   UNL     1      -0.452   7.638  -0.822  0.00  0.00    +0.000 A 
ATOM     16  C   UNL     1      -1.305   8.312   0.036  0.00  0.00    +0.000 A 
ATOM     17  C   UNL     1      -2.134   7.588   0.897  0.00  0.00    +0.000 A 
ATOM     18  C   UNL     1      -2.087   6.205   0.878  0.00  0.00    +0.000 A 
BRANCH  16  19
ATOM     19  O   UNL     1      -1.359   9.676   0.101  0.00  0.00    +0.000 OA
ATOM     20  H   UNL     1      -0.781  10.228  -0.499  0.00  0.00    +0.000 HD
ENDBRANCH  16  19
BRANCH  17  21
ATOM     21  O   UNL     1      -3.017   8.202   1.729  0.00  0.00    +0.000 OA
ATOM     22  H   UNL     1      -3.066   9.201   1.757  0.00  0.00    +0.000 HD
ENDBRANCH  17  21
ENDBRANCH   2  13
TORSDOF 6
