
 OpenBabel03132514253D

 52 55  0  0  0  0  0  0  0  0999 V2000
    0.9700    2.3180   -0.0330 O   0  0  0  0  0  0  0  0  0  0  0  0
    1.0770    1.0920    0.0470 C   0  0  0  0  0  0  0  0  0  0  0  0
    2.4260    0.4550    0.2470 C   0  0  0  0  0  0  0  0  0  0  0  0
    2.4820   -0.9510   -0.3440 C   0  0  0  0  0  0  0  0  0  0  0  0
    2.4296   -0.8207   -1.8575 C   0  0  0  0  0  0  0  0  0  0  0  0
    1.3746   -1.3979   -2.5448 C   0  0  0  0  0  0  0  0  0  0  0  0
    1.5608   -1.4447   -3.9466 C   0  0  0  0  0  0  0  0  0  0  0  0
    2.4394   -0.7155   -4.6102 C   0  0  0  0  0  0  0  0  0  0  0  0
    3.4172   -0.1155   -3.8665 C   0  0  0  0  0  0  0  0  0  0  0  0
    3.3748   -0.1384   -2.4933 C   0  0  0  0  0  0  0  0  0  0  0  0
    1.3720   -1.7580    0.0640 O   0  0  0  0  0  0  0  0  0  0  0  0
    0.1230   -1.1940    0.0310 C   0  0  0  0  0  0  0  0  0  0  0  0
   -0.9440   -2.0490    0.0500 C   0  0  0  0  0  0  0  0  0  0  0  0
   -2.2320   -1.5330    0.0120 C   0  0  0  0  0  0  0  0  0  0  0  0
   -3.3332   -2.4294    0.0297 O   0  0  0  0  0  0  0  0  0  0  0  0
   -4.6600   -1.9249   -0.0085 C   0  0  0  0  0  0  0  0  0  0  0  0
   -5.0891   -1.2991    1.3207 O   0  0  0  0  0  0  0  0  0  0  0  0
   -4.6051    0.0437    1.3927 C   0  0  0  0  0  0  0  0  0  0  0  0
   -3.0978   -0.0230    1.2079 C   0  0  0  0  0  0  0  0  0  0  0  0
   -2.5517    1.2847    1.2975 O   0  0  0  0  0  0  0  0  0  0  0  0
   -5.1087    0.9007    0.3664 C   0  0  0  0  0  0  0  0  0  0  0  0
   -4.5890    2.2100    0.5453 O   0  0  0  0  0  0  0  0  0  0  0  0
   -4.6804    0.3639   -1.0014 C   0  0  0  0  0  0  0  0  0  0  0  0
   -3.2637    0.3767   -1.0974 O   0  0  0  0  0  0  0  0  0  0  0  0
   -5.1950   -1.0700   -1.1620 C   0  0  0  0  0  0  0  0  0  0  0  0
   -4.7496   -1.6032   -2.4004 O   0  0  0  0  0  0  0  0  0  0  0  0
   -2.4780   -0.1610   -0.0430 C   0  0  0  0  0  0  0  0  0  0  0  0
   -1.3790    0.6940   -0.0220 C   0  0  0  0  0  0  0  0  0  0  0  0
   -1.6040    2.0310   -0.0280 O   0  0  0  0  0  0  0  0  0  0  0  0
   -0.0610    0.1940    0.0170 C   0  0  0  0  0  0  0  0  0  0  0  0
    3.1553    1.0560   -0.2548 H   0  0  0  0  0  0  0  0  0  0  0  0
    2.6302    0.3982    1.2958 H   0  0  0  0  0  0  0  0  0  0  0  0
    3.3868   -1.4232   -0.0228 H   0  0  0  0  0  0  0  0  0  0  0  0
    0.4983   -1.7742   -2.0596 H   0  0  0  0  0  0  0  0  0  0  0  0
    0.9470   -2.1177   -4.5081 H   0  0  0  0  0  0  0  0  0  0  0  0
    2.3887   -0.6005   -5.6728 H   0  0  0  0  0  0  0  0  0  0  0  0
    4.2271    0.3790   -4.3608 H   0  0  0  0  0  0  0  0  0  0  0  0
    4.1102    0.3984   -1.9312 H   0  0  0  0  0  0  0  0  0  0  0  0
   -0.7874   -3.1066    0.0938 H   0  0  0  0  0  0  0  0  0  0  0  0
   -5.1274   -2.8623   -0.2269 H   0  0  0  0  0  0  0  0  0  0  0  0
   -4.8874    0.4523    2.3404 H   0  0  0  0  0  0  0  0  0  0  0  0
   -2.6719   -0.6405    1.9709 H   0  0  0  0  0  0  0  0  0  0  0  0
   -2.8742   -0.4378    0.2472 H   0  0  0  0  0  0  0  0  0  0  0  0
   -2.9497    1.8618    0.5844 H   0  0  0  0  0  0  0  0  0  0  0  0
   -6.1769    0.9310    0.4192 H   0  0  0  0  0  0  0  0  0  0  0  0
   -3.5906    2.1820    0.4960 H   0  0  0  0  0  0  0  0  0  0  0  0
   -5.0920    0.9806   -1.7729 H   0  0  0  0  0  0  0  0  0  0  0  0
   -2.8756   -0.1988   -0.3776 H   0  0  0  0  0  0  0  0  0  0  0  0
   -6.2648   -1.0713   -1.1432 H   0  0  0  0  0  0  0  0  0  0  0  0
   -3.7498   -1.6040   -2.4227 H   0  0  0  0  0  0  0  0  0  0  0  0
   -3.4759    0.2210   -0.0993 H   0  0  0  0  0  0  0  0  0  0  0  0
   -0.8331    2.6678   -0.0133 H   0  0  0  0  0  0  0  0  0  0  0  0
  1  2  2  0  0  0  0
  2  3  1  0  0  0  0
  2 30  1  0  0  0  0
  3  4  1  0  0  0  0
  3 31  1  0  0  0  0
  3 32  1  0  0  0  0
  4  5  1  0  0  0  0
  4 11  1  0  0  0  0
  4 33  1  0  0  0  0
  5  6  1  0  0  0  0
  5 10  2  0  0  0  0
  6  7  2  0  0  0  0
  6 34  1  0  0  0  0
  7  8  1  0  0  0  0
  7 35  1  0  0  0  0
  8  9  2  0  0  0  0
  8 36  1  0  0  0  0
  9 10  1  0  0  0  0
  9 37  1  0  0  0  0
 10 38  1  0  0  0  0
 11 12  1  0  0  0  0
 12 13  1  0  0  0  0
 12 30  2  0  0  0  0
 13 14  2  0  0  0  0
 13 39  1  0  0  0  0
 14 15  1  0  0  0  0
 14 27  1  0  0  0  0
 15 16  1  0  0  0  0
 16 17  1  0  0  0  0
 16 25  1  0  0  0  0
 16 40  1  0  0  0  0
 17 18  1  0  0  0  0
 18 19  1  0  0  0  0
 18 21  1  0  0  0  0
 18 41  1  0  0  0  0
 19 20  1  0  0  0  0
 19 42  1  0  0  0  0
 19 43  1  0  0  0  0
 20 44  1  0  0  0  0
 21 22  1  0  0  0  0
 21 23  1  0  0  0  0
 21 45  1  0  0  0  0
 22 46  1  0  0  0  0
 23 24  1  0  0  0  0
 23 25  1  0  0  0  0
 23 47  1  0  0  0  0
 24 48  1  0  0  0  0
 25 26  1  0  0  0  0
 25 49  1  0  0  0  0
 26 50  1  0  0  0  0
 27 28  2  0  0  0  0
 27 51  1  0  0  0  0
 28 29  1  0  0  0  0
 28 30  1  0  0  0  0
 29 52  1  0  0  0  0
M  END
