REMARK  Name = 
REMARK  10 active torsions:
REMARK  status: ('A' for Active; 'I' for Inactive)
REMARK    1  A    between atoms: C_1  and  C_2
REMARK    2  A    between atoms: C_3  and  C_4
REMARK    3  A    between atoms: C_4  and  O_6
REMARK    4  A    between atoms: C_9  and  C_10
REMARK    5  A    between atoms: C_13  and  C_14
REMARK    6  A    between atoms: C_19  and  C_20
REMARK    7  A    between atoms: C_23  and  O_24
REMARK    8  A    between atoms: C_25  and  C_26
REMARK    9  A    between atoms: C_25  and  C_27
REMARK   10  A    between atoms: C_31  and  C_32
REMARK                            x       y       z     vdW  Elec       q    Type
REMARK                         _______ _______ _______ _____ _____    ______ ____
ROOT
ATOM      1  C   UNL     1       0.940  -0.045  -0.065  0.00  0.00    +0.000 C 
ATOM      2  C   UNL     1       0.433  -0.278  -1.480  0.00  0.00    +0.000 C 
ATOM      3  C   UNL     1       0.327   1.076  -2.132  0.00  0.00    +0.000 C 
ATOM      4  C   UNL     1       1.064   2.050  -1.346  0.00  0.00    +0.000 C 
ATOM      5  C   UNL     1       1.781   2.961  -2.022  0.00  0.00    +0.000 C 
ATOM      6  C   UNL     1       2.573   4.002  -1.275  0.00  0.00    +0.000 C 
ATOM      7  C   UNL     1       2.442   5.270  -0.447  0.00  0.00    +0.000 C 
ATOM      8  C   UNL     1       3.976   4.105  -1.877  0.00  0.00    +0.000 C 
ATOM      9  C   UNL     1       4.954   3.298  -1.025  0.00  0.00    +0.000 C 
ATOM     10  C   UNL     1       5.479   2.113  -1.838  0.00  0.00    +0.000 C 
ATOM     11  C   UNL     1       6.262   2.819  -2.933  0.00  0.00    +0.000 C 
ATOM     12  C   UNL     1       2.634  -1.373  -1.361  0.00  0.00    +0.000 C 
ATOM     13  C   UNL     1       3.751  -1.482  -2.036  0.00  0.00    +0.000 C 
ATOM     14  C   UNL     1       5.071  -1.516  -1.310  0.00  0.00    +0.000 C 
ATOM     15  C   UNL     1       5.938  -0.342  -1.773  0.00  0.00    +0.000 C 
ATOM     16  C   UNL     1       5.648  -0.043  -3.235  0.00  0.00    +0.000 C 
ATOM     17  C   UNL     1       5.968  -1.273  -4.069  0.00  0.00    +0.000 C 
ATOM     18  C   UNL     1       4.170   0.324  -3.397  0.00  0.00    +0.000 C 
ATOM     19  C   UNL     1       3.891   1.512  -2.654  0.00  0.00    +0.000 C 
ATOM     20  C   UNL     1       4.635   2.655  -3.081  0.00  0.00    +0.000 C 
ATOM     21  C   UNL     1       6.131   2.383  -2.906  0.00  0.00    +0.000 C 
ATOM     22  C   UNL     1       6.443   2.163  -1.434  0.00  0.00    +0.000 C 
ATOM     23  C   UNL     1       6.928   3.573  -3.415  0.00  0.00    +0.000 C 
ATOM     24  C   UNL     1       6.511   1.132  -3.705  0.00  0.00    +0.000 C 
ATOM     25  C   UNL     1       7.980   0.809  -3.485  0.00  0.00    +0.000 C 
ATOM     26  C   UNL     1       4.314   0.668  -0.178  0.00  0.00    +0.000 C 
ATOM     27  C   UNL     1       5.617   0.892  -0.927  0.00  0.00    +0.000 C 
ATOM     28  C   UNL     1       6.740   1.128   0.070  0.00  0.00    +0.000 C 
ATOM     29  C   UNL     1       1.314  -1.341  -2.087  0.00  0.00    +0.000 C 
ENDROOT
BRANCH   3  30
ATOM     30  C   UNL     1       0.909   1.010  -3.534  0.00  0.00    +0.000 C 
ATOM     31  O   UNL     1       0.179   1.283  -4.539  0.00  0.00    +0.000 OA
BRANCH  30  32
ATOM     32  O   UNL     1       2.268   0.645  -3.723  0.00  0.00    +0.000 OA
ATOM     33  H   UNL     1       2.651   0.602  -4.645  0.00  0.00    +0.000 HD
ENDBRANCH  30  32
ENDBRANCH   3  30
BRANCH  20  34
ATOM     34  O   UNL     1       4.264   3.781  -2.299  0.00  0.00    +0.000 OA
ATOM     35  H   UNL     1       4.459   3.596  -1.336  0.00  0.00    +0.000 HD
ENDBRANCH  20  34
TORSDOF 3
