
 OpenBabel03132514253D

 82 86  0  0  0  0  0  0  0  0999 V2000
    1.0653   -0.0353   -0.0670 C   0  0  0  0  0  0  0  0  0  0  0  0
    0.5586   -0.5999    1.2502 C   0  0  0  0  0  0  0  0  0  0  0  0
    1.4163   -1.7374    1.5362 C   0  0  0  0  0  0  0  0  0  0  0  0
    0.8974   -2.9579    1.3302 C   0  0  0  0  0  0  0  0  0  0  0  0
    1.7267   -4.1852    1.6066 C   0  0  0  0  0  0  0  0  0  0  0  0
    2.8970   -5.0059    1.0898 C   0  0  0  0  0  0  0  0  0  0  0  0
    3.5087   -4.6467    0.0353 O   0  0  0  0  0  0  0  0  0  0  0  0
    3.3070   -6.1741    1.7852 O   0  0  0  0  0  0  0  0  0  0  0  0
    0.8924   -5.1978    2.3937 C   0  0  0  0  0  0  0  0  0  0  0  0
    1.2382   -5.0951    3.8781 C   0  0  0  0  0  0  0  0  0  0  0  0
    0.0211   -4.5820    4.6501 C   0  0  0  0  0  0  0  0  0  0  0  0
   -0.9621   -5.7259    4.4621 C   0  0  0  0  0  0  0  0  0  0  0  0
    0.0618   -0.0572    4.6227 C   0  0  0  0  0  0  0  0  0  0  0  0
   -0.8411   -0.7346    5.2879 C   0  0  0  0  0  0  0  0  0  0  0  0
   -0.4601   -1.4586    6.5536 C   0  0  0  0  0  0  0  0  0  0  0  0
   -0.7356   -2.9551    6.3879 C   0  0  0  0  0  0  0  0  0  0  0  0
   -1.9474   -3.1516    5.4916 C   0  0  0  0  0  0  0  0  0  0  0  0
   -3.1480   -2.4776    6.1355 C   0  0  0  0  0  0  0  0  0  0  0  0
   -1.6839   -2.5288    4.1186 C   0  0  0  0  0  0  0  0  0  0  0  0
   -0.5906   -3.2032    3.4921 C   0  0  0  0  0  0  0  0  0  0  0  0
   -0.8184   -4.5949    3.2627 C   0  0  0  0  0  0  0  0  0  0  0  0
    0.3126   -5.1597    2.6160 O   0  0  0  0  0  0  0  0  0  0  0  0
   -1.0468   -5.3012    4.6011 C   0  0  0  0  0  0  0  0  0  0  0  0
    0.2006   -5.1826    5.4614 C   0  0  0  0  0  0  0  0  0  0  0  0
   -1.3488   -6.7706    4.3558 C   0  0  0  0  0  0  0  0  0  0  0  0
   -2.2318   -4.6472    5.3186 C   0  0  0  0  0  0  0  0  0  0  0  0
   -2.4271   -5.2932    6.6805 C   0  0  0  0  0  0  0  0  0  0  0  0
    1.3970   -2.5705    5.1613 C   0  0  0  0  0  0  0  0  0  0  0  0
    0.4825   -3.6297    5.7548 C   0  0  0  0  0  0  0  0  0  0  0  0
    1.2369   -4.4131    6.8166 C   0  0  0  0  0  0  0  0  0  0  0  0
   -0.3193    0.6663    3.3578 C   0  0  0  0  0  0  0  0  0  0  0  0
    0.7475    0.4502    2.3141 C   0  0  0  0  0  0  0  0  0  0  0  0
    0.7355    1.7508    1.5276 C   0  0  0  0  0  0  0  0  0  0  0  0
    1.9403    0.1190    3.0097 O   0  0  0  0  0  0  0  0  0  0  0  0
    0.7086    0.9664   -0.1865 H   0  0  0  0  0  0  0  0  0  0  0  0
    0.7086   -0.6396   -0.8748 H   0  0  0  0  0  0  0  0  0  0  0  0
    2.1353   -0.0353   -0.0670 H   0  0  0  0  0  0  0  0  0  0  0  0
   -0.4733   -0.8807    1.2143 H   0  0  0  0  0  0  0  0  0  0  0  0
    2.2252   -1.6579    0.8403 H   0  0  0  0  0  0  0  0  0  0  0  0
    1.7002   -1.6769    2.5661 H   0  0  0  0  0  0  0  0  0  0  0  0
    0.7566   -2.9897    0.2700 H   0  0  0  0  0  0  0  0  0  0  0  0
    0.0244   -3.0302    1.9445 H   0  0  0  0  0  0  0  0  0  0  0  0
    4.0769   -6.7141    1.4453 H   0  0  0  0  0  0  0  0  0  0  0  0
   -0.1478   -4.9897    2.2538 H   0  0  0  0  0  0  0  0  0  0  0  0
    1.1076   -6.1860    2.0445 H   0  0  0  0  0  0  0  0  0  0  0  0
    1.5146   -6.0604    4.2479 H   0  0  0  0  0  0  0  0  0  0  0  0
    2.0552   -4.4165    4.0081 H   0  0  0  0  0  0  0  0  0  0  0  0
   -1.7361   -5.6554    5.1975 H   0  0  0  0  0  0  0  0  0  0  0  0
   -1.3928   -5.6689    3.4843 H   0  0  0  0  0  0  0  0  0  0  0  0
   -0.4494   -6.6586    4.5721 H   0  0  0  0  0  0  0  0  0  0  0  0
   -1.8495   -0.7739    4.9322 H   0  0  0  0  0  0  0  0  0  0  0  0
   -1.0376   -1.0778    7.3700 H   0  0  0  0  0  0  0  0  0  0  0  0
    0.5804   -1.3072    6.7517 H   0  0  0  0  0  0  0  0  0  0  0  0
   -0.9270   -3.3909    7.3462 H   0  0  0  0  0  0  0  0  0  0  0  0
   -3.3315   -2.9159    7.0942 H   0  0  0  0  0  0  0  0  0  0  0  0
   -2.9499   -1.4327    6.2531 H   0  0  0  0  0  0  0  0  0  0  0  0
   -4.0078   -2.6096    5.5125 H   0  0  0  0  0  0  0  0  0  0  0  0
   -2.5585   -2.6245    3.5095 H   0  0  0  0  0  0  0  0  0  0  0  0
   -1.4436   -1.4929    4.2368 H   0  0  0  0  0  0  0  0  0  0  0  0
    0.2404   -3.1328    4.1623 H   0  0  0  0  0  0  0  0  0  0  0  0
   -0.4019   -2.7337    2.5493 H   0  0  0  0  0  0  0  0  0  0  0  0
   -1.6817   -4.7177    2.6426 H   0  0  0  0  0  0  0  0  0  0  0  0
    1.1196   -5.0451    3.1953 H   0  0  0  0  0  0  0  0  0  0  0  0
    0.0372   -5.6761    6.3966 H   0  0  0  0  0  0  0  0  0  0  0  0
    1.0265   -5.6391    4.9569 H   0  0  0  0  0  0  0  0  0  0  0  0
    0.4164   -4.1493    5.6362 H   0  0  0  0  0  0  0  0  0  0  0  0
   -2.2281   -6.8582    3.7525 H   0  0  0  0  0  0  0  0  0  0  0  0
   -0.5225   -7.2249    3.8500 H   0  0  0  0  0  0  0  0  0  0  0  0
   -1.5083   -7.2631    5.2923 H   0  0  0  0  0  0  0  0  0  0  0  0
   -3.1201   -4.7783    4.7367 H   0  0  0  0  0  0  0  0  0  0  0  0
   -2.6234   -6.3376    6.5550 H   0  0  0  0  0  0  0  0  0  0  0  0
   -1.5411   -5.1648    7.2665 H   0  0  0  0  0  0  0  0  0  0  0  0
    1.7197   -1.9044    5.9340 H   0  0  0  0  0  0  0  0  0  0  0  0
    2.2490   -3.0424    4.7184 H   0  0  0  0  0  0  0  0  0  0  0  0
    2.0890   -4.8850    6.3737 H   0  0  0  0  0  0  0  0  0  0  0  0
    1.5597   -3.7470    7.5893 H   0  0  0  0  0  0  0  0  0  0  0  0
    0.5932   -5.1588    7.2344 H   0  0  0  0  0  0  0  0  0  0  0  0
   -1.0270    1.4639    3.4472 H   0  0  0  0  0  0  0  0  0  0  0  0
    0.9141    2.5707    2.1914 H   0  0  0  0  0  0  0  0  0  0  0  0
    1.5013    1.7230    0.7808 H   0  0  0  0  0  0  0  0  0  0  0  0
   -0.2174    1.8741    1.0568 H   0  0  0  0  0  0  0  0  0  0  0  0
    2.1050    0.7938    3.7291 H   0  0  0  0  0  0  0  0  0  0  0  0
  1  2  1  0  0  0  0
  1 35  1  0  0  0  0
  1 36  1  0  0  0  0
  1 37  1  0  0  0  0
  2  3  1  0  0  0  0
  2 32  1  0  0  0  0
  2 38  1  0  0  0  0
  3  4  1  0  0  0  0
  3 39  1  0  0  0  0
  3 40  1  0  0  0  0
  4  5  1  0  0  0  0
  4 41  1  0  0  0  0
  4 42  1  0  0  0  0
  5  6  1  0  0  0  0
  5  9  1  0  0  0  0
  5 31  1  0  0  0  0
  6  7  2  0  0  0  0
  6  8  1  0  0  0  0
  8 43  1  0  0  0  0
  9 10  1  0  0  0  0
  9 44  1  0  0  0  0
  9 45  1  0  0  0  0
 10 11  1  0  0  0  0
 10 46  1  0  0  0  0
 10 47  1  0  0  0  0
 11 12  1  0  0  0  0
 11 13  1  0  0  0  0
 11 29  1  0  0  0  0
 12 48  1  0  0  0  0
 12 49  1  0  0  0  0
 12 50  1  0  0  0  0
 13 14  2  0  0  0  0
 13 31  1  0  0  0  0
 14 15  1  0  0  0  0
 14 51  1  0  0  0  0
 15 16  1  0  0  0  0
 15 52  1  0  0  0  0
 15 53  1  0  0  0  0
 16 17  1  0  0  0  0
 16 29  1  0  0  0  0
 16 54  1  0  0  0  0
 17 18  1  0  0  0  0
 17 19  1  0  0  0  0
 17 26  1  0  0  0  0
 18 55  1  0  0  0  0
 18 56  1  0  0  0  0
 18 57  1  0  0  0  0
 19 20  1  0  0  0  0
 19 58  1  0  0  0  0
 19 59  1  0  0  0  0
 20 21  1  0  0  0  0
 20 60  1  0  0  0  0
 20 61  1  0  0  0  0
 21 22  1  0  0  0  0
 21 23  1  0  0  0  0
 21 62  1  0  0  0  0
 22 63  1  0  0  0  0
 23 24  1  0  0  0  0
 23 25  1  0  0  0  0
 23 26  1  0  0  0  0
 24 64  1  0  0  0  0
 24 65  1  0  0  0  0
 24 66  1  0  0  0  0
 25 67  1  0  0  0  0
 25 68  1  0  0  0  0
 25 69  1  0  0  0  0
 26 27  1  0  0  0  0
 26 70  1  0  0  0  0
 27 28  1  0  0  0  0
 27 71  1  0  0  0  0
 27 72  1  0  0  0  0
 28 29  1  0  0  0  0
 28 73  1  0  0  0  0
 28 74  1  0  0  0  0
 29 30  1  0  0  0  0
 30 75  1  0  0  0  0
 30 76  1  0  0  0  0
 30 77  1  0  0  0  0
 31 32  1  0  0  0  0
 31 78  1  0  0  0  0
 32 33  1  0  0  0  0
 32 34  1  0  0  0  0
 33 79  1  0  0  0  0
 33 80  1  0  0  0  0
 33 81  1  0  0  0  0
 34 82  1  0  0  0  0
M  END
