REMARK  Name = 
REMARK  5 active torsions:
REMARK  status: ('A' for Active; 'I' for Inactive)
REMARK    1  A    between atoms: C_1  and  O_2
REMARK    2  A    between atoms: O_2  and  C_3
REMARK    3  A    between atoms: C_8  and  O_9
REMARK    4  A    between atoms: O_9  and  C_10
REMARK    5  A    between atoms: N_20  and  C_21
REMARK                            x       y       z     vdW  Elec       q    Type
REMARK                         _______ _______ _______ _____ _____    ______ ____
ROOT
ATOM      1  C   UNL     1       0.927   0.106   2.440  0.00  0.00    +0.000 A 
ATOM      2  C   UNL     1       2.236  -0.262   2.687  0.00  0.00    +0.000 A 
ATOM      3  C   UNL     1       2.581  -0.852   3.885  0.00  0.00    +0.000 A 
ATOM      4  C   UNL     1       1.609  -1.082   4.857  0.00  0.00    +0.000 A 
ATOM      5  C   UNL     1       0.296  -0.707   4.598  0.00  0.00    +0.000 A 
ATOM      6  C   UNL     1      -0.044  -0.118   3.400  0.00  0.00    +0.000 A 
ATOM      7  C   UNL     1      -0.497  -1.081   5.824  0.00  0.00    +0.000 C 
ATOM      8  C   UNL     1      -1.560  -2.086   5.485  0.00  0.00    +0.000 C 
ATOM      9  C   UNL     1      -2.852  -1.730   5.439  0.00  0.00    +0.000 C 
ATOM     10  C   UNL     1      -3.259  -0.480   5.698  0.00  0.00    +0.000 C 
ATOM     11  O   UNL     1      -4.412  -0.095   5.327  0.00  0.00    +0.000 OA
ATOM     12  C   UNL     1      -2.445   0.366   6.352  0.00  0.00    +0.000 C 
ATOM     13  C   UNL     1      -1.111   0.139   6.448  0.00  0.00    +0.000 C 
ATOM     14  C   UNL     1       0.520  -1.693   6.758  0.00  0.00    +0.000 C 
ATOM     15  C   UNL     1       1.707  -1.654   6.127  0.00  0.00    +0.000 C 
ATOM     16  N   UNL     1       2.617  -0.823   6.928  0.00  0.00    +0.000 NA
ATOM     17  C   UNL     1       3.934  -0.771   6.276  0.00  0.00    +0.000 C 
ATOM     18  C   UNL     1       2.070   0.537   7.038  0.00  0.00    +0.000 C 
ATOM     19  C   UNL     1       4.024  -1.251   4.147  0.00  0.00    +0.000 C 
ENDROOT
BRANCH   1  21
ATOM     20  C   UNL     1       1.057  -0.082  -0.009  0.00  0.00    +0.000 C 
ATOM     21  O   UNL     1       0.584   0.589   1.150  0.00  0.00    +0.000 OA
ENDBRANCH   1  21
BRANCH   6  22
ATOM     22  O   UNL     1      -1.391   0.258   3.150  0.00  0.00    +0.000 OA
ATOM     23  C   UNL     1      -1.741   0.865   1.915  0.00  0.00    +0.000 C 
ENDBRANCH   6  22
TORSDOF 2
