
 OpenBabel03132514253D

 44 47  0  0  0  0  0  0  0  0999 V2000
    1.0571   -0.0816   -0.0087 C   0  0  0  0  0  0  0  0  0  0  0  0
    0.5838    0.5892    1.1499 O   0  0  0  0  0  0  0  0  0  0  0  0
    0.9268    0.1057    2.4402 C   0  0  0  0  0  0  0  0  0  0  0  0
    2.2365   -0.2620    2.6865 C   0  0  0  0  0  0  0  0  0  0  0  0
    2.5810   -0.8517    3.8853 C   0  0  0  0  0  0  0  0  0  0  0  0
    1.6094   -1.0818    4.8571 C   0  0  0  0  0  0  0  0  0  0  0  0
    0.2961   -0.7066    4.5980 C   0  0  0  0  0  0  0  0  0  0  0  0
   -0.0445   -0.1182    3.4001 C   0  0  0  0  0  0  0  0  0  0  0  0
   -1.3907    0.2583    3.1504 O   0  0  0  0  0  0  0  0  0  0  0  0
   -1.7409    0.8649    1.9152 C   0  0  0  0  0  0  0  0  0  0  0  0
   -0.4970   -1.0810    5.8243 C   0  0  0  0  0  0  0  0  0  0  0  0
   -1.5600   -2.0857    5.4847 C   0  0  0  0  0  0  0  0  0  0  0  0
   -2.8519   -1.7303    5.4394 C   0  0  0  0  0  0  0  0  0  0  0  0
   -3.2592   -0.4800    5.6984 C   0  0  0  0  0  0  0  0  0  0  0  0
   -4.4122   -0.0953    5.3272 O   0  0  0  0  0  0  0  0  0  0  0  0
   -2.4446    0.3657    6.3519 C   0  0  0  0  0  0  0  0  0  0  0  0
   -1.1105    0.1393    6.4482 C   0  0  0  0  0  0  0  0  0  0  0  0
    0.5197   -1.6929    6.7582 C   0  0  0  0  0  0  0  0  0  0  0  0
    1.7066   -1.6539    6.1267 C   0  0  0  0  0  0  0  0  0  0  0  0
    2.6172   -0.8233    6.9277 N   0  0  0  0  0  0  0  0  0  0  0  0
    3.9337   -0.7706    6.2758 C   0  0  0  0  0  0  0  0  0  0  0  0
    2.0704    0.5367    7.0383 C   0  0  0  0  0  0  0  0  0  0  0  0
    4.0241   -1.2512    4.1466 C   0  0  0  0  0  0  0  0  0  0  0  0
    0.7005    0.4217   -0.8830 H   0  0  0  0  0  0  0  0  0  0  0  0
    0.7005   -1.0904   -0.0074 H   0  0  0  0  0  0  0  0  0  0  0  0
    2.1271   -0.0816   -0.0087 H   0  0  0  0  0  0  0  0  0  0  0  0
    2.9868   -0.0885    1.9437 H   0  0  0  0  0  0  0  0  0  0  0  0
   -1.1916    1.7755    1.7966 H   0  0  0  0  0  0  0  0  0  0  0  0
   -1.5054    0.1990    1.1114 H   0  0  0  0  0  0  0  0  0  0  0  0
   -2.7896    1.0773    1.9068 H   0  0  0  0  0  0  0  0  0  0  0  0
   -1.2830   -3.0980    5.2763 H   0  0  0  0  0  0  0  0  0  0  0  0
   -3.5828   -2.4702    5.1879 H   0  0  0  0  0  0  0  0  0  0  0  0
   -2.8590    1.2403    6.8082 H   0  0  0  0  0  0  0  0  0  0  0  0
   -0.4904    0.8359    6.9728 H   0  0  0  0  0  0  0  0  0  0  0  0
    0.5611   -1.1560    7.6828 H   0  0  0  0  0  0  0  0  0  0  0  0
    0.2537   -2.7056    6.9786 H   0  0  0  0  0  0  0  0  0  0  0  0
    2.0770   -2.6528    6.0271 H   0  0  0  0  0  0  0  0  0  0  0  0
    3.8311   -0.3470    5.2986 H   0  0  0  0  0  0  0  0  0  0  0  0
    4.5965   -0.1660    6.8589 H   0  0  0  0  0  0  0  0  0  0  0  0
    4.3317   -1.7606    6.1953 H   0  0  0  0  0  0  0  0  0  0  0  0
    1.1122    0.4984    7.5128 H   0  0  0  0  0  0  0  0  0  0  0  0
    2.7332    1.1413    7.6213 H   0  0  0  0  0  0  0  0  0  0  0  0
    4.6491   -0.3843    4.0949 H   0  0  0  0  0  0  0  0  0  0  0  0
    4.1022   -1.6898    5.1194 H   0  0  0  0  0  0  0  0  0  0  0  0
  1  2  1  0  0  0  0
  1 24  1  0  0  0  0
  1 25  1  0  0  0  0
  1 26  1  0  0  0  0
  2  3  1  0  0  0  0
  3  4  1  0  0  0  0
  3  8  2  0  0  0  0
  4  5  2  0  0  0  0
  4 27  1  0  0  0  0
  5  6  1  0  0  0  0
  5 23  1  0  0  0  0
  6  7  2  0  0  0  0
  6 19  1  0  0  0  0
  7  8  1  0  0  0  0
  7 11  1  0  0  0  0
  8  9  1  0  0  0  0
  9 10  1  0  0  0  0
 10 28  1  0  0  0  0
 10 29  1  0  0  0  0
 10 30  1  0  0  0  0
 11 12  1  0  0  0  0
 11 17  1  0  0  0  0
 11 18  1  0  0  0  0
 12 13  2  0  0  0  0
 12 31  1  0  0  0  0
 13 14  1  0  0  0  0
 13 32  1  0  0  0  0
 14 15  2  0  0  0  0
 14 16  1  0  0  0  0
 16 17  2  0  0  0  0
 16 33  1  0  0  0  0
 17 34  1  0  0  0  0
 18 19  1  0  0  0  0
 18 35  1  0  0  0  0
 18 36  1  0  0  0  0
 19 20  1  0  0  0  0
 19 37  1  0  0  0  0
 20 21  1  0  0  0  0
 20 22  1  0  0  0  0
 21 38  1  0  0  0  0
 21 39  1  0  0  0  0
 21 40  1  0  0  0  0
 22 23  1  0  0  0  0
 22 41  1  0  0  0  0
 22 42  1  0  0  0  0
 23 43  1  0  0  0  0
 23 44  1  0  0  0  0
M  END
