REMARK  Name = 
REMARK  18 active torsions:
REMARK  status: ('A' for Active; 'I' for Inactive)
REMARK    1  A    between atoms: C_1  and  C_2
REMARK    2  A    between atoms: C_2  and  C_3
REMARK    3  A    between atoms: C_4  and  C_5
REMARK    4  A    between atoms: C_5  and  C_6
REMARK    5  A    between atoms: C_6  and  O_7
REMARK    6  A    between atoms: C_6  and  C_8
REMARK    7  A    between atoms: C_9  and  C_10
REMARK    8  A    between atoms: C_11  and  C_12
REMARK    9  A    between atoms: C_13  and  C_14
REMARK   10  A    between atoms: C_14  and  O_15
REMARK   11  A    between atoms: C_14  and  C_16
REMARK   12  A    between atoms: C_16  and  C_17
REMARK   13  A    between atoms: C_18  and  C_19
REMARK   14  A    between atoms: C_19  and  C_20
REMARK   15  A    between atoms: C_21  and  C_22
REMARK   16  A    between atoms: C_22  and  C_23
REMARK   17  A    between atoms: C_23  and  C_24
REMARK   18  A    between atoms: C_24  and  O_26
REMARK                            x       y       z     vdW  Elec       q    Type
REMARK                         _______ _______ _______ _____ _____    ______ ____
ROOT
ATOM      1  C   UNL     1       4.563 -10.570  -7.226  0.00  0.00    +0.000 C 
ENDROOT
BRANCH   1   2
ATOM      2  O   UNL     1       5.983 -10.570  -7.226  0.00  0.00    +0.000 OA
ATOM      3  H   UNL     1       6.316  -9.646  -7.414  0.00  0.00    +0.000 HD
ENDBRANCH   1   2
BRANCH   1   5
ATOM      4  C   UNL     1       3.274  -8.561  -6.495  0.00  0.00    +0.000 C 
ATOM      5  C   UNL     1       4.056  -9.620  -6.152  0.00  0.00    +0.000 C 
BRANCH   4   7
ATOM      6  C   UNL     1       1.985  -6.553  -5.765  0.00  0.00    +0.000 C 
ATOM      7  C   UNL     1       2.768  -7.611  -5.422  0.00  0.00    +0.000 C 
BRANCH   6   9
ATOM      8  C   UNL     1       0.697  -4.544  -5.035  0.00  0.00    +0.000 C 
ATOM      9  C   UNL     1       1.479  -5.603  -4.692  0.00  0.00    +0.000 C 
BRANCH   8  10
ATOM     10  C   UNL     1       0.190  -3.594  -3.962  0.00  0.00    +0.000 C 
BRANCH  10  11
ATOM     11  O   UNL     1      -1.230  -3.594  -3.962  0.00  0.00    +0.000 OA
ATOM     12  H   UNL     1      -1.563  -2.969  -3.256  0.00  0.00    +0.000 HD
ENDBRANCH  10  11
BRANCH  10  13
ATOM     13  C   UNL     1       0.697  -2.190  -4.248  0.00  0.00    +0.000 C 
BRANCH  13  15
ATOM     14  C   UNL     1       1.074  -0.555  -2.401  0.00  0.00    +0.000 C 
ATOM     15  C   UNL     1       0.190  -1.240  -3.175  0.00  0.00    +0.000 C 
BRANCH  14  17
ATOM     16  C   UNL     1       1.074  -0.059   0.032  0.00  0.00    +0.000 C 
ATOM     17  C   UNL     1       0.567   0.395  -1.327  0.00  0.00    +0.000 C 
ENDBRANCH  14  17
ENDBRANCH  13  15
ENDBRANCH  10  13
ENDBRANCH   8  10
ENDBRANCH   6   9
ENDBRANCH   4   7
ENDBRANCH   1   5
BRANCH   1  18
ATOM     18  C   UNL     1       4.056 -11.974  -6.939  0.00  0.00    +0.000 C 
BRANCH  18  19
ATOM     19  C   UNL     1       2.536 -11.974  -6.939  0.00  0.00    +0.000 C 
ATOM     20  C   UNL     1       1.856 -12.755  -7.822  0.00  0.00    +0.000 C 
BRANCH  20  21
ATOM     21  C   UNL     1       0.336 -12.755  -7.822  0.00  0.00    +0.000 C 
BRANCH  21  22
ATOM     22  C   UNL     1      -0.171 -12.300  -9.181  0.00  0.00    +0.000 C 
ATOM     23  C   UNL     1      -0.953 -13.127  -9.926  0.00  0.00    +0.000 C 
BRANCH  23  24
ATOM     24  C   UNL     1      -1.459 -12.673 -11.285  0.00  0.00    +0.000 C 
BRANCH  24  25
ATOM     25  C   UNL     1      -0.953 -13.622 -12.359  0.00  0.00    +0.000 C 
BRANCH  25  26
ATOM     26  C   UNL     1      -1.459 -15.027 -12.073  0.00  0.00    +0.000 C 
ATOM     27  O   UNL     1      -2.190 -15.624 -12.924  0.00  0.00    +0.000 OA
BRANCH  26  28
ATOM     28  O   UNL     1      -1.116 -15.671 -10.855  0.00  0.00    +0.000 OA
ATOM     29  H   UNL     1      -1.450 -16.595 -10.666  0.00  0.00    +0.000 HD
ENDBRANCH  26  28
ENDBRANCH  25  26
ENDBRANCH  24  25
ENDBRANCH  23  24
ENDBRANCH  21  22
ENDBRANCH  20  21
ENDBRANCH  18  19
ENDBRANCH   1  18
TORSDOF 17
