
 OpenBabel03132514253D

 58 57  0  0  0  0  0  0  0  0999 V2000
    1.0740   -0.0594    0.0317 C   0  0  0  0  0  0  0  0  0  0  0  0
    0.5673    0.3951   -1.3274 C   0  0  0  0  0  0  0  0  0  0  0  0
    1.0740   -0.5547   -2.4005 C   0  0  0  0  0  0  0  0  0  0  0  0
    0.1899   -1.2400   -3.1748 C   0  0  0  0  0  0  0  0  0  0  0  0
    0.6966   -2.1898   -4.2480 C   0  0  0  0  0  0  0  0  0  0  0  0
    0.1899   -3.5940   -3.9620 C   0  0  0  0  0  0  0  0  0  0  0  0
   -1.2301   -3.5940   -3.9620 O   0  0  0  0  0  0  0  0  0  0  0  0
    0.6966   -4.5438   -5.0351 C   0  0  0  0  0  0  0  0  0  0  0  0
    1.4787   -5.6027   -4.6921 C   0  0  0  0  0  0  0  0  0  0  0  0
    1.9854   -6.5525   -5.7653 C   0  0  0  0  0  0  0  0  0  0  0  0
    2.7675   -7.6114   -5.4222 C   0  0  0  0  0  0  0  0  0  0  0  0
    3.2741   -8.5612   -6.4954 C   0  0  0  0  0  0  0  0  0  0  0  0
    4.0563   -9.6201   -6.1523 C   0  0  0  0  0  0  0  0  0  0  0  0
    4.5629  -10.5699   -7.2255 C   0  0  0  0  0  0  0  0  0  0  0  0
    5.9829  -10.5699   -7.2255 O   0  0  0  0  0  0  0  0  0  0  0  0
    4.0563  -11.9741   -6.9395 C   0  0  0  0  0  0  0  0  0  0  0  0
    2.5363  -11.9741   -6.9395 C   0  0  0  0  0  0  0  0  0  0  0  0
    1.8560  -12.7550   -7.8217 C   0  0  0  0  0  0  0  0  0  0  0  0
    0.3360  -12.7550   -7.8217 C   0  0  0  0  0  0  0  0  0  0  0  0
   -0.1706  -12.3005   -9.1808 C   0  0  0  0  0  0  0  0  0  0  0  0
   -0.9527  -13.1270   -9.9263 C   0  0  0  0  0  0  0  0  0  0  0  0
   -1.4594  -12.6726  -11.2854 C   0  0  0  0  0  0  0  0  0  0  0  0
   -0.9528  -13.6223  -12.3586 C   0  0  0  0  0  0  0  0  0  0  0  0
   -1.4594  -15.0266  -12.0726 C   0  0  0  0  0  0  0  0  0  0  0  0
   -2.1901  -15.6241  -12.9237 O   0  0  0  0  0  0  0  0  0  0  0  0
   -1.1164  -15.6708  -10.8546 O   0  0  0  0  0  0  0  0  0  0  0  0
    0.7173   -1.0479    0.2330 H   0  0  0  0  0  0  0  0  0  0  0  0
    0.7173    0.6092    0.7871 H   0  0  0  0  0  0  0  0  0  0  0  0
    2.1440   -0.0594    0.0317 H   0  0  0  0  0  0  0  0  0  0  0  0
   -0.5027    0.3951   -1.3274 H   0  0  0  0  0  0  0  0  0  0  0  0
    0.9240    1.3836   -1.5287 H   0  0  0  0  0  0  0  0  0  0  0  0
    2.1259   -0.6843   -2.5470 H   0  0  0  0  0  0  0  0  0  0  0  0
   -0.8621   -1.1104   -3.0284 H   0  0  0  0  0  0  0  0  0  0  0  0
    0.3399   -1.8698   -5.2047 H   0  0  0  0  0  0  0  0  0  0  0  0
    1.7666   -2.1898   -4.2480 H   0  0  0  0  0  0  0  0  0  0  0  0
    0.5466   -3.9139   -3.0053 H   0  0  0  0  0  0  0  0  0  0  0  0
   -1.5634   -2.9691   -3.2560 H   0  0  0  0  0  0  0  0  0  0  0  0
    0.4381   -4.3795   -6.0604 H   0  0  0  0  0  0  0  0  0  0  0  0
    1.7372   -5.7670   -3.6669 H   0  0  0  0  0  0  0  0  0  0  0  0
    1.7269   -6.3882   -6.7905 H   0  0  0  0  0  0  0  0  0  0  0  0
    3.0260   -7.7757   -4.3970 H   0  0  0  0  0  0  0  0  0  0  0  0
    3.0156   -8.3969   -7.5206 H   0  0  0  0  0  0  0  0  0  0  0  0
    4.3148   -9.7844   -5.1271 H   0  0  0  0  0  0  0  0  0  0  0  0
    4.2062  -10.2500   -8.1822 H   0  0  0  0  0  0  0  0  0  0  0  0
    6.3163   -9.6460   -7.4136 H   0  0  0  0  0  0  0  0  0  0  0  0
    4.4129  -12.6427   -7.6949 H   0  0  0  0  0  0  0  0  0  0  0  0
    4.4129  -12.2941   -5.9828 H   0  0  0  0  0  0  0  0  0  0  0  0
    2.0013  -11.3600   -6.2456 H   0  0  0  0  0  0  0  0  0  0  0  0
    2.3910  -13.3691   -8.5156 H   0  0  0  0  0  0  0  0  0  0  0  0
   -0.0206  -13.7435   -7.6204 H   0  0  0  0  0  0  0  0  0  0  0  0
   -0.0206  -12.0864   -7.0663 H   0  0  0  0  0  0  0  0  0  0  0  0
    0.0879  -11.3305   -9.5512 H   0  0  0  0  0  0  0  0  0  0  0  0
   -1.2112  -14.0971   -9.5560 H   0  0  0  0  0  0  0  0  0  0  0  0
   -2.5294  -12.6726  -11.2854 H   0  0  0  0  0  0  0  0  0  0  0  0
   -1.1028  -11.6841  -11.4868 H   0  0  0  0  0  0  0  0  0  0  0  0
   -1.3094  -13.3024  -13.3153 H   0  0  0  0  0  0  0  0  0  0  0  0
    0.1172  -13.6223  -12.3586 H   0  0  0  0  0  0  0  0  0  0  0  0
   -1.4497  -16.5947  -10.6664 H   0  0  0  0  0  0  0  0  0  0  0  0
  1  2  1  0  0  0  0
  1 27  1  0  0  0  0
  1 28  1  0  0  0  0
  1 29  1  0  0  0  0
  2  3  1  0  0  0  0
  2 30  1  0  0  0  0
  2 31  1  0  0  0  0
  3  4  2  0  0  0  0
  3 32  1  0  0  0  0
  4  5  1  0  0  0  0
  4 33  1  0  0  0  0
  5  6  1  0  0  0  0
  5 34  1  0  0  0  0
  5 35  1  0  0  0  0
  6  7  1  0  0  0  0
  6  8  1  0  0  0  0
  6 36  1  0  0  0  0
  7 37  1  0  0  0  0
  8  9  2  0  0  0  0
  8 38  1  0  0  0  0
  9 10  1  0  0  0  0
  9 39  1  0  0  0  0
 10 11  2  0  0  0  0
 10 40  1  0  0  0  0
 11 12  1  0  0  0  0
 11 41  1  0  0  0  0
 12 13  2  0  0  0  0
 12 42  1  0  0  0  0
 13 14  1  0  0  0  0
 13 43  1  0  0  0  0
 14 15  1  0  0  0  0
 14 16  1  0  0  0  0
 14 44  1  0  0  0  0
 15 45  1  0  0  0  0
 16 17  1  0  0  0  0
 16 46  1  0  0  0  0
 16 47  1  0  0  0  0
 17 18  2  0  0  0  0
 17 48  1  0  0  0  0
 18 19  1  0  0  0  0
 18 49  1  0  0  0  0
 19 20  1  0  0  0  0
 19 50  1  0  0  0  0
 19 51  1  0  0  0  0
 20 21  2  0  0  0  0
 20 52  1  0  0  0  0
 21 22  1  0  0  0  0
 21 53  1  0  0  0  0
 22 23  1  0  0  0  0
 22 54  1  0  0  0  0
 22 55  1  0  0  0  0
 23 24  1  0  0  0  0
 23 56  1  0  0  0  0
 23 57  1  0  0  0  0
 24 25  2  0  0  0  0
 24 26  1  0  0  0  0
 26 58  1  0  0  0  0
M  END
