
 OpenBabel03132514253D

 35 36  0  0  0  0  0  0  0  0999 V2000
    0.9552    0.0572   -0.0687 C   0  0  0  0  0  0  0  0  0  0  0  0
    0.4818    0.9752    0.9058 O   0  0  0  0  0  0  0  0  0  0  0  0
    0.8249    0.7996    2.2725 C   0  0  0  0  0  0  0  0  0  0  0  0
   -0.1488    0.9677    3.2432 C   0  0  0  0  0  0  0  0  0  0  0  0
    0.3657    1.0946    4.5552 C   0  0  0  0  0  0  0  0  0  0  0  0
   -0.5469    1.6833    5.6187 C   0  0  0  0  0  0  0  0  0  0  0  0
   -1.8109    2.0671    5.2937 C   0  0  0  0  0  0  0  0  0  0  0  0
   -2.7235    2.6558    6.3572 C   0  0  0  0  0  0  0  0  0  0  0  0
   -4.0527    2.2662    6.3655 C   0  0  0  0  0  0  0  0  0  0  0  0
   -4.8959    3.1206    7.1145 C   0  0  0  0  0  0  0  0  0  0  0  0
   -4.4731    3.9862    8.0179 C   0  0  0  0  0  0  0  0  0  0  0  0
   -5.3581    4.5819    8.9551 O   0  0  0  0  0  0  0  0  0  0  0  0
   -3.1374    4.2780    8.0022 C   0  0  0  0  0  0  0  0  0  0  0  0
   -2.2700    3.5755    7.2010 C   0  0  0  0  0  0  0  0  0  0  0  0
    1.5835    0.7372    4.9200 C   0  0  0  0  0  0  0  0  0  0  0  0
    2.4810    0.5194    3.9117 C   0  0  0  0  0  0  0  0  0  0  0  0
    3.8482    0.3003    4.2270 O   0  0  0  0  0  0  0  0  0  0  0  0
    4.7889    0.0732    3.1879 C   0  0  0  0  0  0  0  0  0  0  0  0
    2.0792    0.5095    2.5979 C   0  0  0  0  0  0  0  0  0  0  0  0
    0.5985    0.3472   -1.0349 H   0  0  0  0  0  0  0  0  0  0  0  0
    0.5985   -0.9246    0.1632 H   0  0  0  0  0  0  0  0  0  0  0  0
    2.0252    0.0572   -0.0687 H   0  0  0  0  0  0  0  0  0  0  0  0
   -1.1950    0.9987    3.0211 H   0  0  0  0  0  0  0  0  0  0  0  0
   -0.1951    1.7958    6.6229 H   0  0  0  0  0  0  0  0  0  0  0  0
   -2.1627    1.9546    4.2895 H   0  0  0  0  0  0  0  0  0  0  0  0
   -4.4094    1.3979    5.8520 H   0  0  0  0  0  0  0  0  0  0  0  0
   -5.9493    3.0613    6.9367 H   0  0  0  0  0  0  0  0  0  0  0  0
   -5.0089    5.2343    9.6277 H   0  0  0  0  0  0  0  0  0  0  0  0
   -2.7622    5.0647    8.6228 H   0  0  0  0  0  0  0  0  0  0  0  0
   -1.2196    3.7712    7.2574 H   0  0  0  0  0  0  0  0  0  0  0  0
    1.8534    0.6240    5.9492 H   0  0  0  0  0  0  0  0  0  0  0  0
    4.5076   -0.7997    2.6367 H   0  0  0  0  0  0  0  0  0  0  0  0
    4.8071    0.9185    2.5322 H   0  0  0  0  0  0  0  0  0  0  0  0
    5.7608   -0.0704    3.6118 H   0  0  0  0  0  0  0  0  0  0  0  0
    2.7833    0.2659    1.8299 H   0  0  0  0  0  0  0  0  0  0  0  0
  1  2  1  0  0  0  0
  1 20  1  0  0  0  0
  1 21  1  0  0  0  0
  1 22  1  0  0  0  0
  2  3  1  0  0  0  0
  3  4  1  0  0  0  0
  3 19  2  0  0  0  0
  4  5  2  0  0  0  0
  4 23  1  0  0  0  0
  5  6  1  0  0  0  0
  5 15  1  0  0  0  0
  6  7  2  0  0  0  0
  6 24  1  0  0  0  0
  7  8  1  0  0  0  0
  7 25  1  0  0  0  0
  8  9  1  0  0  0  0
  8 14  2  0  0  0  0
  9 10  2  0  0  0  0
  9 26  1  0  0  0  0
 10 11  1  0  0  0  0
 10 27  1  0  0  0  0
 11 12  1  0  0  0  0
 11 13  2  0  0  0  0
 12 28  1  0  0  0  0
 13 14  1  0  0  0  0
 13 29  1  0  0  0  0
 14 30  1  0  0  0  0
 15 16  2  0  0  0  0
 15 31  1  0  0  0  0
 16 17  1  0  0  0  0
 16 19  1  0  0  0  0
 17 18  1  0  0  0  0
 18 32  1  0  0  0  0
 18 33  1  0  0  0  0
 18 34  1  0  0  0  0
 19 35  1  0  0  0  0
M  END
