REMARK  Name = 
REMARK  7 active torsions:
REMARK  status: ('A' for Active; 'I' for Inactive)
REMARK    1  A    between atoms: C_1  and  O_2
REMARK    2  A    between atoms: O_2  and  C_3
REMARK    3  A    between atoms: C_5  and  C_6
REMARK    4  A    between atoms: C_7  and  C_8
REMARK    5  A    between atoms: C_11  and  O_12
REMARK    6  A    between atoms: C_16  and  O_17
REMARK    7  A    between atoms: O_17  and  C_18
REMARK                            x       y       z     vdW  Elec       q    Type
REMARK                         _______ _______ _______ _____ _____    ______ ____
ROOT
ATOM      1  C   UNL     1       0.825   0.800   2.272  0.00  0.00    +0.000 A 
ATOM      2  C   UNL     1      -0.149   0.968   3.243  0.00  0.00    +0.000 A 
ATOM      3  C   UNL     1       0.366   1.095   4.555  0.00  0.00    +0.000 A 
ATOM      4  C   UNL     1       1.583   0.737   4.920  0.00  0.00    +0.000 A 
ATOM      5  C   UNL     1       2.481   0.519   3.912  0.00  0.00    +0.000 A 
ATOM      6  C   UNL     1       2.079   0.509   2.598  0.00  0.00    +0.000 A 
ENDROOT
BRANCH   1   8
ATOM      7  C   UNL     1       0.955   0.057  -0.069  0.00  0.00    +0.000 C 
ATOM      8  O   UNL     1       0.482   0.975   0.906  0.00  0.00    +0.000 OA
ENDBRANCH   1   8
BRANCH   3   9
ATOM      9  C   UNL     1      -0.547   1.683   5.619  0.00  0.00    +0.000 C 
ATOM     10  C   UNL     1      -1.811   2.067   5.294  0.00  0.00    +0.000 C 
BRANCH  10  11
ATOM     11  C   UNL     1      -2.724   2.656   6.357  0.00  0.00    +0.000 A 
ATOM     12  C   UNL     1      -4.053   2.266   6.365  0.00  0.00    +0.000 A 
ATOM     13  C   UNL     1      -4.896   3.121   7.114  0.00  0.00    +0.000 A 
ATOM     14  C   UNL     1      -4.473   3.986   8.018  0.00  0.00    +0.000 A 
ATOM     15  C   UNL     1      -3.137   4.278   8.002  0.00  0.00    +0.000 A 
ATOM     16  C   UNL     1      -2.270   3.575   7.201  0.00  0.00    +0.000 A 
BRANCH  14  17
ATOM     17  O   UNL     1      -5.358   4.582   8.955  0.00  0.00    +0.000 OA
ATOM     18  H   UNL     1      -5.009   5.234   9.628  0.00  0.00    +0.000 HD
ENDBRANCH  14  17
ENDBRANCH  10  11
ENDBRANCH   3   9
BRANCH   5  19
ATOM     19  O   UNL     1       3.848   0.300   4.227  0.00  0.00    +0.000 OA
ATOM     20  C   UNL     1       4.789   0.073   3.188  0.00  0.00    +0.000 C 
ENDBRANCH   5  19
TORSDOF 5
