
 OpenBabel03132514253D

 66 69  0  0  0  0  0  0  0  0999 V2000
    1.0606   -0.0011    0.0796 C   0  0  0  0  0  0  0  0  0  0  0  0
    0.5539    0.4031    1.4544 C   0  0  0  0  0  0  0  0  0  0  0  0
   -0.1768    1.4349    1.5843 O   0  0  0  0  0  0  0  0  0  0  0  0
    0.9211   -0.4265    2.6739 C   0  0  0  0  0  0  0  0  0  0  0  0
   -0.0349   -0.9162    3.5412 C   0  0  0  0  0  0  0  0  0  0  0  0
   -1.3860   -0.5013    3.4036 O   0  0  0  0  0  0  0  0  0  0  0  0
    0.2938   -1.7681    4.4996 C   0  0  0  0  0  0  0  0  0  0  0  0
   -0.7857   -2.2796    5.4394 C   0  0  0  0  0  0  0  0  0  0  0  0
    1.5387   -2.1850    4.6592 C   0  0  0  0  0  0  0  0  0  0  0  0
    1.8430   -3.1047    5.6974 O   0  0  0  0  0  0  0  0  0  0  0  0
    2.5465   -1.7362    3.8276 C   0  0  0  0  0  0  0  0  0  0  0  0
    3.9746   -2.2205    4.0183 C   0  0  0  0  0  0  0  0  0  0  0  0
    4.4572   -1.8402    5.4086 C   0  0  0  0  0  0  0  0  0  0  0  0
    5.5069   -0.9543    5.5472 C   0  0  0  0  0  0  0  0  0  0  0  0
    6.1787   -0.4756    4.3914 O   0  0  0  0  0  0  0  0  0  0  0  0
    5.8941   -0.5462    6.7454 C   0  0  0  0  0  0  0  0  0  0  0  0
    5.2924   -0.9623    7.8472 C   0  0  0  0  0  0  0  0  0  0  0  0
    4.2350   -1.8490    7.7833 C   0  0  0  0  0  0  0  0  0  0  0  0
    3.5493   -2.3223    9.0546 C   0  0  0  0  0  0  0  0  0  0  0  0
    3.9481   -1.9020   10.1858 O   0  0  0  0  0  0  0  0  0  0  0  0
    2.3868   -3.2981    8.9731 C   0  0  0  0  0  0  0  0  0  0  0  0
    1.9599   -3.7479    7.7622 C   0  0  0  0  0  0  0  0  0  0  0  0
    0.7974   -4.7237    7.6807 C   0  0  0  0  0  0  0  0  0  0  0  0
    0.8695   -5.8264    6.8532 C   0  0  0  0  0  0  0  0  0  0  0  0
   -0.1384   -6.6811    6.7756 C   0  0  0  0  0  0  0  0  0  0  0  0
   -1.2421   -6.5174    7.4857 C   0  0  0  0  0  0  0  0  0  0  0  0
   -1.3828   -5.4364    8.3343 C   0  0  0  0  0  0  0  0  0  0  0  0
   -0.3483   -4.5176    8.4356 C   0  0  0  0  0  0  0  0  0  0  0  0
    3.8069   -2.3021    6.5439 C   0  0  0  0  0  0  0  0  0  0  0  0
    2.7271   -3.2184    6.4395 O   0  0  0  0  0  0  0  0  0  0  0  0
    5.7384   -0.4921    9.1107 O   0  0  0  0  0  0  0  0  0  0  0  0
    5.0983   -0.9335   10.2989 C   0  0  0  0  0  0  0  0  0  0  0  0
    3.6301   -0.5421   10.2588 C   0  0  0  0  0  0  0  0  0  0  0  0
    5.2170   -2.4450   10.4068 C   0  0  0  0  0  0  0  0  0  0  0  0
    5.7627   -0.2859   11.5028 C   0  0  0  0  0  0  0  0  0  0  0  0
    7.0586    0.4243    6.8578 C   0  0  0  0  0  0  0  0  0  0  0  0
    2.2385   -0.8380    2.8163 C   0  0  0  0  0  0  0  0  0  0  0  0
    3.2491   -0.3504    1.9460 O   0  0  0  0  0  0  0  0  0  0  0  0
    0.7039    0.6948   -0.6508 H   0  0  0  0  0  0  0  0  0  0  0  0
    0.7039   -0.9816   -0.1579 H   0  0  0  0  0  0  0  0  0  0  0  0
    2.1306   -0.0011    0.0796 H   0  0  0  0  0  0  0  0  0  0  0  0
   -1.6404    0.1421    2.6816 H   0  0  0  0  0  0  0  0  0  0  0  0
   -1.2283   -1.4543    5.9570 H   0  0  0  0  0  0  0  0  0  0  0  0
   -1.5372   -2.7909    4.8748 H   0  0  0  0  0  0  0  0  0  0  0  0
   -0.3516   -2.9536    6.1480 H   0  0  0  0  0  0  0  0  0  0  0  0
    2.7824   -3.4237    5.8233 H   0  0  0  0  0  0  0  0  0  0  0  0
    4.0083   -3.2842    3.9077 H   0  0  0  0  0  0  0  0  0  0  0  0
    4.6066   -1.7653    3.2846 H   0  0  0  0  0  0  0  0  0  0  0  0
    5.8908   -0.7802    3.4835 H   0  0  0  0  0  0  0  0  0  0  0  0
    1.9041   -3.6312    9.8680 H   0  0  0  0  0  0  0  0  0  0  0  0
    2.4426   -3.4148    6.8673 H   0  0  0  0  0  0  0  0  0  0  0  0
    1.7499   -5.9921    6.2681 H   0  0  0  0  0  0  0  0  0  0  0  0
   -0.0583   -7.5248    6.1224 H   0  0  0  0  0  0  0  0  0  0  0  0
   -2.0353   -7.2307    7.4020 H   0  0  0  0  0  0  0  0  0  0  0  0
   -2.2782   -5.3094    8.9061 H   0  0  0  0  0  0  0  0  0  0  0  0
   -0.4322   -3.6688    9.0816 H   0  0  0  0  0  0  0  0  0  0  0  0
    2.4276   -3.5378    5.5405 H   0  0  0  0  0  0  0  0  0  0  0  0
    3.1624   -0.9980    9.4113 H   0  0  0  0  0  0  0  0  0  0  0  0
    3.1478   -0.8747   11.1542 H   0  0  0  0  0  0  0  0  0  0  0  0
    3.5466    0.5219   10.1828 H   0  0  0  0  0  0  0  0  0  0  0  0
    6.2505   -2.7205   10.4350 H   0  0  0  0  0  0  0  0  0  0  0  0
    4.7346   -2.7776   11.3021 H   0  0  0  0  0  0  0  0  0  0  0  0
    4.7493   -2.9009    9.5592 H   0  0  0  0  0  0  0  0  0  0  0  0
    5.4103   -0.5030   12.4895 H   0  0  0  0  0  0  0  0  0  0  0  0
    7.3822    0.7625    7.8200 H   0  0  0  0  0  0  0  0  0  0  0  0
    3.0147    0.2968    1.2207 H   0  0  0  0  0  0  0  0  0  0  0  0
  1  2  1  0  0  0  0
  1 39  1  0  0  0  0
  1 40  1  0  0  0  0
  1 41  1  0  0  0  0
  2  3  2  0  0  0  0
  2  4  1  0  0  0  0
  4  5  1  0  0  0  0
  4 37  2  0  0  0  0
  5  6  1  0  0  0  0
  5  7  2  0  0  0  0
  6 42  1  0  0  0  0
  7  8  1  0  0  0  0
  7  9  1  0  0  0  0
  8 43  1  0  0  0  0
  8 44  1  0  0  0  0
  8 45  1  0  0  0  0
  9 10  1  0  0  0  0
  9 11  2  0  0  0  0
 10 46  1  0  0  0  0
 11 12  1  0  0  0  0
 11 37  1  0  0  0  0
 12 13  1  0  0  0  0
 12 47  1  0  0  0  0
 12 48  1  0  0  0  0
 13 14  1  0  0  0  0
 13 29  2  0  0  0  0
 14 15  1  0  0  0  0
 14 16  2  0  0  0  0
 15 49  1  0  0  0  0
 16 17  1  0  0  0  0
 16 36  1  0  0  0  0
 17 18  2  0  0  0  0
 17 31  1  0  0  0  0
 18 19  1  0  0  0  0
 18 29  1  0  0  0  0
 19 20  2  0  0  0  0
 19 21  1  0  0  0  0
 21 22  2  0  0  0  0
 21 50  1  0  0  0  0
 22 23  1  0  0  0  0
 22 51  1  0  0  0  0
 23 24  1  0  0  0  0
 23 28  2  0  0  0  0
 24 25  2  0  0  0  0
 24 52  1  0  0  0  0
 25 26  1  0  0  0  0
 25 53  1  0  0  0  0
 26 27  2  0  0  0  0
 26 54  1  0  0  0  0
 27 28  1  0  0  0  0
 27 55  1  0  0  0  0
 28 56  1  0  0  0  0
 29 30  1  0  0  0  0
 30 57  1  0  0  0  0
 31 32  1  0  0  0  0
 32 33  1  0  0  0  0
 32 34  1  0  0  0  0
 32 35  1  0  0  0  0
 33 58  1  0  0  0  0
 33 59  1  0  0  0  0
 33 60  1  0  0  0  0
 34 61  1  0  0  0  0
 34 62  1  0  0  0  0
 34 63  1  0  0  0  0
 35 36  2  0  0  0  0
 35 64  1  0  0  0  0
 36 65  1  0  0  0  0
 37 38  1  0  0  0  0
 38 66  1  0  0  0  0
M  END
