REMARK  Name = 
REMARK  15 active torsions:
REMARK  status: ('A' for Active; 'I' for Inactive)
REMARK    1  A    between atoms: C_1  and  C_2
REMARK    2  A    between atoms: C_2  and  C_4
REMARK    3  A    between atoms: C_5  and  O_6
REMARK    4  A    between atoms: C_7  and  C_8
REMARK    5  A    between atoms: C_9  and  O_10
REMARK    6  A    between atoms: C_11  and  C_12
REMARK    7  A    between atoms: C_12  and  C_13
REMARK    8  A    between atoms: C_14  and  O_15
REMARK    9  A    between atoms: C_18  and  C_19
REMARK   10  A    between atoms: C_19  and  C_21
REMARK   11  A    between atoms: C_22  and  C_23
REMARK   12  A    between atoms: C_29  and  O_30
REMARK   13  A    between atoms: C_32  and  C_33
REMARK   14  A    between atoms: C_32  and  C_34
REMARK   15  A    between atoms: C_37  and  O_38
REMARK                            x       y       z     vdW  Elec       q    Type
REMARK                         _______ _______ _______ _____ _____    ______ ____
ROOT
ATOM      1  C   UNL     1       4.457  -1.840   5.409  0.00  0.00    +0.000 A 
ATOM      2  C   UNL     1       5.507  -0.954   5.547  0.00  0.00    +0.000 A 
ATOM      3  C   UNL     1       5.894  -0.546   6.745  0.00  0.00    +0.000 A 
ATOM      4  C   UNL     1       5.292  -0.962   7.847  0.00  0.00    +0.000 A 
ATOM      5  C   UNL     1       4.235  -1.849   7.783  0.00  0.00    +0.000 A 
ATOM      6  C   UNL     1       3.807  -2.302   6.544  0.00  0.00    +0.000 A 
ATOM      7  O   UNL     1       5.738  -0.492   9.111  0.00  0.00    +0.000 OA
ATOM      8  C   UNL     1       5.098  -0.933  10.299  0.00  0.00    +0.000 C 
ATOM      9  C   UNL     1       3.630  -0.542  10.259  0.00  0.00    +0.000 C 
ATOM     10  C   UNL     1       5.217  -2.445  10.407  0.00  0.00    +0.000 C 
ATOM     11  C   UNL     1       5.763  -0.286  11.503  0.00  0.00    +0.000 C 
ATOM     12  C   UNL     1       7.059   0.424   6.858  0.00  0.00    +0.000 C 
ENDROOT
BRANCH   2  13
ATOM     13  O   UNL     1       6.179  -0.476   4.391  0.00  0.00    +0.000 OA
ATOM     14  H   UNL     1       5.891  -0.780   3.483  0.00  0.00    +0.000 HD
ENDBRANCH   2  13
BRANCH   5  15
ATOM     15  C   UNL     1       3.549  -2.322   9.055  0.00  0.00    +0.000 C 
ATOM     16  O   UNL     1       3.948  -1.902  10.186  0.00  0.00    +0.000 OA
BRANCH  15  17
ATOM     17  C   UNL     1       2.387  -3.298   8.973  0.00  0.00    +0.000 C 
ATOM     18  C   UNL     1       1.960  -3.748   7.762  0.00  0.00    +0.000 C 
BRANCH  18  19
ATOM     19  C   UNL     1       0.797  -4.724   7.681  0.00  0.00    +0.000 A 
ATOM     20  C   UNL     1       0.870  -5.826   6.853  0.00  0.00    +0.000 A 
ATOM     21  C   UNL     1      -0.138  -6.681   6.776  0.00  0.00    +0.000 A 
ATOM     22  C   UNL     1      -1.242  -6.517   7.486  0.00  0.00    +0.000 A 
ATOM     23  C   UNL     1      -1.383  -5.436   8.334  0.00  0.00    +0.000 A 
ATOM     24  C   UNL     1      -0.348  -4.518   8.436  0.00  0.00    +0.000 A 
ENDBRANCH  18  19
ENDBRANCH  15  17
ENDBRANCH   5  15
BRANCH   6  25
ATOM     25  O   UNL     1       2.727  -3.218   6.439  0.00  0.00    +0.000 OA
ATOM     26  H   UNL     1       2.428  -3.538   5.540  0.00  0.00    +0.000 HD
ENDBRANCH   6  25
BRANCH   1  27
ATOM     27  C   UNL     1       3.975  -2.220   4.018  0.00  0.00    +0.000 C 
BRANCH  27  33
ATOM     28  C   UNL     1       0.921  -0.426   2.674  0.00  0.00    +0.000 A 
ATOM     29  C   UNL     1      -0.035  -0.916   3.541  0.00  0.00    +0.000 A 
ATOM     30  C   UNL     1       0.294  -1.768   4.500  0.00  0.00    +0.000 A 
ATOM     31  C   UNL     1      -0.786  -2.280   5.439  0.00  0.00    +0.000 C 
ATOM     32  C   UNL     1       1.539  -2.185   4.659  0.00  0.00    +0.000 A 
ATOM     33  C   UNL     1       2.546  -1.736   3.828  0.00  0.00    +0.000 A 
ATOM     34  C   UNL     1       2.239  -0.838   2.816  0.00  0.00    +0.000 A 
BRANCH  28  36
ATOM     35  C   UNL     1       1.061  -0.001   0.080  0.00  0.00    +0.000 C 
ATOM     36  C   UNL     1       0.554   0.403   1.454  0.00  0.00    +0.000 C 
ATOM     37  O   UNL     1      -0.177   1.435   1.584  0.00  0.00    +0.000 OA
ENDBRANCH  28  36
BRANCH  29  38
ATOM     38  O   UNL     1      -1.386  -0.501   3.404  0.00  0.00    +0.000 OA
ATOM     39  H   UNL     1      -1.640   0.142   2.682  0.00  0.00    +0.000 HD
ENDBRANCH  29  38
BRANCH  32  40
ATOM     40  O   UNL     1       1.843  -3.105   5.697  0.00  0.00    +0.000 OA
ATOM     41  H   UNL     1       2.782  -3.424   5.823  0.00  0.00    +0.000 HD
ENDBRANCH  32  40
BRANCH  34  42
ATOM     42  O   UNL     1       3.249  -0.350   1.946  0.00  0.00    +0.000 OA
ATOM     43  H   UNL     1       3.015   0.297   1.221  0.00  0.00    +0.000 HD
ENDBRANCH  34  42
ENDBRANCH  27  33
ENDBRANCH   1  27
TORSDOF 11
