REMARK  Name = 
REMARK  9 active torsions:
REMARK  status: ('A' for Active; 'I' for Inactive)
REMARK    1  A    between atoms: C_1  and  C_2
REMARK    2  A    between atoms: C_2  and  N_3
REMARK    3  A    between atoms: N_3  and  C_4
REMARK    4  A    between atoms: N_3  and  C_6
REMARK    5  A    between atoms: C_4  and  C_5
REMARK    6  A    between atoms: C_9  and  C_10
REMARK    7  A    between atoms: N_11  and  N_12
REMARK    8  A    between atoms: C_13  and  C_15
REMARK    9  A    between atoms: C_21  and  O_22
REMARK                            x       y       z     vdW  Elec       q    Type
REMARK                         _______ _______ _______ _____ _____    ______ ____
ROOT
ATOM      1  C   UNL     1       2.428  -2.100   1.689  0.00  0.00    +0.000 A 
ATOM      2  C   UNL     1       3.254  -1.059   1.343  0.00  0.00    +0.000 A 
ATOM      3  C   UNL     1       4.611  -1.148   1.564  0.00  0.00    +0.000 A 
ATOM      4  C   UNL     1       5.172  -2.287   2.151  0.00  0.00    +0.000 A 
ATOM      5  C   UNL     1       4.297  -3.329   2.523  0.00  0.00    +0.000 A 
ATOM      6  C   UNL     1       2.949  -3.240   2.271  0.00  0.00    +0.000 A 
ENDROOT
BRANCH   4   7
ATOM      7  C   UNL     1       6.671  -2.398   2.379  0.00  0.00    +0.000 C 
ATOM      8  N   UNL     1       7.465  -1.412   2.022  0.00  0.00    +0.000 NA
BRANCH   8   9
ATOM      9  N   UNL     1       6.923  -0.244   1.424  0.00  0.00    +0.000 N 
ATOM     10  C   UNL     1       5.473  -0.137   1.203  0.00  0.00    +0.000 C 
ATOM     11  O   UNL     1       4.988   0.909   0.668  0.00  0.00    +0.000 OA
ATOM     12  H   UNL     1       7.539   0.521   1.147  0.00  0.00    +0.000 HD
BRANCH  10  13
ATOM     13  C   UNL     1       4.555  -1.276   1.616  0.00  0.00    +0.000 A 
ATOM     14  C   UNL     1       4.660  -1.934   2.844  0.00  0.00    +0.000 A 
ATOM     15  C   UNL     1       3.791  -2.966   3.137  0.00  0.00    +0.000 A 
ATOM     16  N   UNL     1       2.851  -3.387   2.275  0.00  0.00    +0.000 NA
ATOM     17  C   UNL     1       2.770  -2.768   1.093  0.00  0.00    +0.000 A 
ATOM     18  C   UNL     1       3.579  -1.714   0.731  0.00  0.00    +0.000 A 
ENDBRANCH  10  13
ENDBRANCH   8   9
ENDBRANCH   4   7
BRANCH   5  19
ATOM     19  O   UNL     1       4.748  -4.456   3.118  0.00  0.00    +0.000 OA
ATOM     20  H   UNL     1       5.722  -4.561   3.320  0.00  0.00    +0.000 HD
ENDBRANCH   5  19
BRANCH   1  21
ATOM     21  N   UNL     1       0.982  -2.002   1.439  0.00  0.00    +0.000 N 
BRANCH  21  23
ATOM     22  C   UNL     1       0.999  -0.078  -0.063  0.00  0.00    +0.000 C 
ATOM     23  C   UNL     1       0.492  -1.495   0.150  0.00  0.00    +0.000 C 
ENDBRANCH  21  23
BRANCH  21  24
ATOM     24  C   UNL     1       0.027  -2.411   2.479  0.00  0.00    +0.000 C 
ATOM     25  C   UNL     1       0.242  -3.877   2.817  0.00  0.00    +0.000 C 
ENDBRANCH  21  24
ENDBRANCH   1  21
TORSDOF 7
