
 OpenBabel03132514253D

 38 39  0  0  0  0  0  0  0  0999 V2000
    0.9233   -0.0616   -0.0178 O   0  0  0  0  0  0  0  0  0  0  0  0
    0.4499    0.7056   -1.1149 C   0  0  0  0  0  0  0  0  0  0  0  0
    0.9566    2.1333   -0.9909 C   0  0  0  0  0  0  0  0  0  0  0  0
    2.1692    2.3642   -0.3625 C   0  0  0  0  0  0  0  0  0  0  0  0
    2.4028    3.7241   -0.0492 C   0  0  0  0  0  0  0  0  0  0  0  0
    1.7546    4.7394   -0.5905 C   0  0  0  0  0  0  0  0  0  0  0  0
    0.5991    4.4377   -1.2563 C   0  0  0  0  0  0  0  0  0  0  0  0
    0.2368    3.1326   -1.4873 C   0  0  0  0  0  0  0  0  0  0  0  0
   -0.9180    2.8500   -2.2639 O   0  0  0  0  0  0  0  0  0  0  0  0
   -1.2983    1.5035   -2.5066 C   0  0  0  0  0  0  0  0  0  0  0  0
   -1.0545    0.1310   -3.1383 O   0  0  0  0  0  0  0  0  0  0  0  0
    0.1237   -0.4496   -2.5749 C   0  0  0  0  0  0  0  0  0  0  0  0
    1.2544    0.5390   -2.8082 C   0  0  0  0  0  0  0  0  0  0  0  0
    2.4646    0.0043   -2.2925 O   0  0  0  0  0  0  0  0  0  0  0  0
    0.0498   -0.6662   -1.1646 C   0  0  0  0  0  0  0  0  0  0  0  0
    1.2548   -1.2674   -0.7140 O   0  0  0  0  0  0  0  0  0  0  0  0
   -0.1493    0.6741   -0.4530 C   0  0  0  0  0  0  0  0  0  0  0  0
    0.9703    1.5138   -0.6937 O   0  0  0  0  0  0  0  0  0  0  0  0
   -1.4196    1.3430   -0.9876 C   0  0  0  0  0  0  0  0  0  0  0  0
   -1.5814    2.6173   -0.3823 O   0  0  0  0  0  0  0  0  0  0  0  0
    1.9233   -0.0616   -0.0178 H   0  0  0  0  0  0  0  0  0  0  0  0
    0.8066    0.2787   -2.0290 H   0  0  0  0  0  0  0  0  0  0  0  0
   -0.6201    0.7056   -1.1149 H   0  0  0  0  0  0  0  0  0  0  0  0
    2.8661    1.5848   -0.1347 H   0  0  0  0  0  0  0  0  0  0  0  0
    3.1570    3.9452    0.6769 H   0  0  0  0  0  0  0  0  0  0  0  0
    2.1144    5.7441   -0.5123 H   0  0  0  0  0  0  0  0  0  0  0  0
   -0.0321    5.2294   -1.6025 H   0  0  0  0  0  0  0  0  0  0  0  0
   -1.7479    1.5725   -3.4751 H   0  0  0  0  0  0  0  0  0  0  0  0
    0.2945   -1.3924   -3.0512 H   0  0  0  0  0  0  0  0  0  0  0  0
    1.3618    0.7170   -3.8578 H   0  0  0  0  0  0  0  0  0  0  0  0
    1.0311    1.4600   -2.3113 H   0  0  0  0  0  0  0  0  0  0  0  0
    2.3642   -0.1620   -1.3115 H   0  0  0  0  0  0  0  0  0  0  0  0
   -0.7745   -1.3123   -0.9456 H   0  0  0  0  0  0  0  0  0  0  0  0
    2.0253   -0.6637   -0.9186 H   0  0  0  0  0  0  0  0  0  0  0  0
   -0.2471    0.5096    0.5997 H   0  0  0  0  0  0  0  0  0  0  0  0
    1.0647    1.6697   -1.6770 H   0  0  0  0  0  0  0  0  0  0  0  0
   -2.2691    0.7343   -0.7581 H   0  0  0  0  0  0  0  0  0  0  0  0
   -0.7894    3.1899   -0.5942 H   0  0  0  0  0  0  0  0  0  0  0  0
  1  2  1  0  0  0  0
  1 21  1  0  0  0  0
  2  3  1  0  0  0  0
  2 22  1  0  0  0  0
  2 23  1  0  0  0  0
  3  4  1  0  0  0  0
  3  8  2  0  0  0  0
  4  5  2  0  0  0  0
  4 24  1  0  0  0  0
  5  6  1  0  0  0  0
  5 25  1  0  0  0  0
  6  7  2  0  0  0  0
  6 26  1  0  0  0  0
  7  8  1  0  0  0  0
  7 27  1  0  0  0  0
  8  9  1  0  0  0  0
  9 10  1  0  0  0  0
 10 11  1  0  0  0  0
 10 19  1  0  0  0  0
 10 28  1  0  0  0  0
 11 12  1  0  0  0  0
 12 13  1  0  0  0  0
 12 15  1  0  0  0  0
 12 29  1  0  0  0  0
 13 14  1  0  0  0  0
 13 30  1  0  0  0  0
 13 31  1  0  0  0  0
 14 32  1  0  0  0  0
 15 16  1  0  0  0  0
 15 17  1  0  0  0  0
 15 33  1  0  0  0  0
 16 34  1  0  0  0  0
 17 18  1  0  0  0  0
 17 19  1  0  0  0  0
 17 35  1  0  0  0  0
 18 36  1  0  0  0  0
 19 20  1  0  0  0  0
 19 37  1  0  0  0  0
 20 38  1  0  0  0  0
M  END
