REMARK  Name = 
REMARK  9 active torsions:
REMARK  status: ('A' for Active; 'I' for Inactive)
REMARK    1  A    between atoms: O_1  and  C_2
REMARK    2  A    between atoms: C_2  and  C_3
REMARK    3  A    between atoms: C_8  and  O_9
REMARK    4  A    between atoms: O_9  and  C_10
REMARK    5  A    between atoms: C_12  and  C_13
REMARK    6  A    between atoms: C_13  and  O_14
REMARK    7  A    between atoms: C_15  and  O_16
REMARK    8  A    between atoms: C_17  and  O_18
REMARK    9  A    between atoms: C_19  and  O_20
REMARK                            x       y       z     vdW  Elec       q    Type
REMARK                         _______ _______ _______ _____ _____    ______ ____
ROOT
ATOM      1  C   UNL     1      -1.298   1.504  -2.507  0.00  0.00    +0.000 C 
ATOM      2  O   UNL     1      -1.054   0.131  -3.138  0.00  0.00    +0.000 OA
ATOM      3  C   UNL     1       0.124  -0.450  -2.575  0.00  0.00    +0.000 C 
ATOM      4  C   UNL     1       0.050  -0.666  -1.165  0.00  0.00    +0.000 C 
ATOM      5  C   UNL     1      -0.149   0.674  -0.453  0.00  0.00    +0.000 C 
ATOM      6  C   UNL     1      -1.420   1.343  -0.988  0.00  0.00    +0.000 C 
ENDROOT
BRANCH   4   7
ATOM      7  O   UNL     1       1.255  -1.267  -0.714  0.00  0.00    +0.000 OA
ATOM      8  H   UNL     1       2.025  -0.664  -0.919  0.00  0.00    +0.000 HD
ENDBRANCH   4   7
BRANCH   5   9
ATOM      9  O   UNL     1       0.970   1.514  -0.694  0.00  0.00    +0.000 OA
ATOM     10  H   UNL     1       1.065   1.670  -1.677  0.00  0.00    +0.000 HD
ENDBRANCH   5   9
BRANCH   6  11
ATOM     11  O   UNL     1      -1.581   2.617  -0.382  0.00  0.00    +0.000 OA
ATOM     12  H   UNL     1      -0.789   3.190  -0.594  0.00  0.00    +0.000 HD
ENDBRANCH   6  11
BRANCH   1  13
ATOM     13  O   UNL     1      -0.918   2.850  -2.264  0.00  0.00    +0.000 OA
BRANCH  13  19
ATOM     14  C   UNL     1       0.957   2.133  -0.991  0.00  0.00    +0.000 A 
ATOM     15  C   UNL     1       2.169   2.364  -0.362  0.00  0.00    +0.000 A 
ATOM     16  C   UNL     1       2.403   3.724  -0.049  0.00  0.00    +0.000 A 
ATOM     17  C   UNL     1       1.755   4.739  -0.591  0.00  0.00    +0.000 A 
ATOM     18  C   UNL     1       0.599   4.438  -1.256  0.00  0.00    +0.000 A 
ATOM     19  C   UNL     1       0.237   3.133  -1.487  0.00  0.00    +0.000 A 
BRANCH  14  20
ATOM     20  C   UNL     1       0.450   0.706  -1.115  0.00  0.00    +0.000 C 
BRANCH  20  21
ATOM     21  O   UNL     1       0.923  -0.062  -0.018  0.00  0.00    +0.000 OA
ATOM     22  H   UNL     1       1.923  -0.062  -0.018  0.00  0.00    +0.000 HD
ENDBRANCH  20  21
ENDBRANCH  14  20
ENDBRANCH  13  19
ENDBRANCH   1  13
BRANCH   3  23
ATOM     23  C   UNL     1       1.254   0.539  -2.808  0.00  0.00    +0.000 C 
BRANCH  23  24
ATOM     24  O   UNL     1       2.465   0.004  -2.292  0.00  0.00    +0.000 OA
ATOM     25  H   UNL     1       2.364  -0.162  -1.312  0.00  0.00    +0.000 HD
ENDBRANCH  23  24
ENDBRANCH   3  23
TORSDOF 9
