REMARK  Name = 
REMARK  4 active torsions:
REMARK  status: ('A' for Active; 'I' for Inactive)
REMARK    1  A    between atoms: O_1  and  C_2
REMARK    2  A    between atoms: C_5  and  C_6
REMARK    3  A    between atoms: C_8  and  C_9
REMARK    4  A    between atoms: C_16  and  C_17
REMARK                            x       y       z     vdW  Elec       q    Type
REMARK                         _______ _______ _______ _____ _____    ______ ____
ROOT
ATOM      1  C   UNL     1      -3.396   0.087  -0.044  0.00  0.00    +0.000 A 
ATOM      2  N   UNL     1      -4.161  -0.433   0.880  0.00  0.00    +0.000 NA
ATOM      3  C   UNL     1      -5.471  -0.183   0.459  0.00  0.00    +0.000 A 
ATOM      4  C   UNL     1      -5.457   0.491  -0.726  0.00  0.00    +0.000 A 
ATOM      5  N   UNL     1      -4.130   0.681  -1.048  0.00  0.00    +0.000 N 
ATOM      6  H   UNL     1      -3.763   1.165  -1.868  0.00  0.00    +0.000 HD
ENDROOT
BRANCH   3   7
ATOM      7  C   UNL     1      -6.724  -0.601   1.210  0.00  0.00    +0.000 A 
ATOM      8  C   UNL     1      -6.950  -0.135   2.497  0.00  0.00    +0.000 A 
ATOM      9  C   UNL     1      -8.094  -0.499   3.191  0.00  0.00    +0.000 A 
ATOM     10  C   UNL     1      -8.985  -1.291   2.569  0.00  0.00    +0.000 A 
ATOM     11  F   UNL     1     -10.108  -1.647   3.242  0.00  0.00    +0.000 F 
ATOM     12  C   UNL     1      -8.809  -1.764   1.314  0.00  0.00    +0.000 A 
ATOM     13  C   UNL     1      -7.653  -1.416   0.632  0.00  0.00    +0.000 A 
ENDBRANCH   3   7
BRANCH   1  17
ATOM     14  C   UNL     1       0.885  -0.025  -0.001  0.00  0.00    +0.000 A 
ATOM     15  C   UNL     1       0.224   1.180   0.016  0.00  0.00    +0.000 A 
ATOM     16  C   UNL     1      -1.157   1.212   0.000  0.00  0.00    +0.000 A 
ATOM     17  C   UNL     1      -1.877   0.042  -0.014  0.00  0.00    +0.000 A 
ATOM     18  C   UNL     1      -1.226  -1.172  -0.001  0.00  0.00    +0.000 A 
ATOM     19  C   UNL     1       0.171  -1.241   0.015  0.00  0.00    +0.000 A 
BRANCH  14  20
ATOM     20  O   UNL     1       2.237   0.005  -0.011  0.00  0.00    +0.000 OA
ATOM     21  H   UNL     1       2.756  -0.850  -0.023  0.00  0.00    +0.000 HD
ENDBRANCH  14  20
ENDBRANCH   1  17
BRANCH   4  22
ATOM     22  C   UNL     1      -6.664   0.943  -1.531  0.00  0.00    +0.000 A 
ATOM     23  C   UNL     1      -7.598   1.822  -0.977  0.00  0.00    +0.000 A 
ATOM     24  C   UNL     1      -8.660   2.257  -1.745  0.00  0.00    +0.000 A 
ATOM     25  N   UNL     1      -8.851   1.851  -3.010  0.00  0.00    +0.000 NA
ATOM     26  C   UNL     1      -7.966   0.993  -3.528  0.00  0.00    +0.000 A 
ATOM     27  C   UNL     1      -6.866   0.530  -2.842  0.00  0.00    +0.000 A 
ENDBRANCH   4  22
TORSDOF 4
