REMARK  Name = 
REMARK  6 active torsions:
REMARK  status: ('A' for Active; 'I' for Inactive)
REMARK    1  A    between atoms: C_5  and  C_6
REMARK    2  A    between atoms: N_9  and  C_10
REMARK    3  A    between atoms: C_10  and  C_11
REMARK    4  A    between atoms: C_11  and  C_12
REMARK    5  A    between atoms: C_12  and  N_13
REMARK    6  A    between atoms: C_19  and  C_20
REMARK                            x       y       z     vdW  Elec       q    Type
REMARK                         _______ _______ _______ _____ _____    ______ ____
ROOT
ATOM      1  C   UNL     1      -3.466   0.011  -0.002  0.00  0.00    +0.000 A 
ATOM      2  N   UNL     1      -4.214   0.553  -0.924  0.00  0.00    +0.000 NA
ATOM      3  C   UNL     1      -5.506   0.361  -0.561  0.00  0.00    +0.000 A 
ATOM      4  N   UNL     1      -5.467  -0.325   0.607  0.00  0.00    +0.000 N 
ATOM      5  C   UNL     1      -4.210  -0.515   0.905  0.00  0.00    +0.000 A 
ENDROOT
BRANCH   1  10
ATOM      6  F   UNL     1       2.137  -0.011  -0.002  0.00  0.00    +0.000 F 
ATOM      7  C   UNL     1       0.780  -0.001   0.005  0.00  0.00    +0.000 A 
ATOM      8  C   UNL     1       0.127  -1.186   0.005  0.00  0.00    +0.000 A 
ATOM      9  C   UNL     1      -1.259  -1.177  -0.006  0.00  0.00    +0.000 A 
ATOM     10  C   UNL     1      -1.946   0.002  -0.001  0.00  0.00    +0.000 A 
ATOM     11  C   UNL     1      -1.234   1.192   0.005  0.00  0.00    +0.000 A 
ATOM     12  C   UNL     1       0.152   1.188  -0.006  0.00  0.00    +0.000 A 
ENDBRANCH   1  10
BRANCH   5  13
ATOM     13  C   UNL     1      -3.704  -1.245   2.139  0.00  0.00    +0.000 A 
ATOM     14  C   UNL     1      -2.893  -0.553   3.041  0.00  0.00    +0.000 A 
ATOM     15  C   UNL     1      -2.312  -1.235   4.093  0.00  0.00    +0.000 A 
ATOM     16  N   UNL     1      -2.477  -2.554   4.277  0.00  0.00    +0.000 NA
ATOM     17  C   UNL     1      -3.236  -3.215   3.398  0.00  0.00    +0.000 A 
ATOM     18  C   UNL     1      -3.872  -2.610   2.338  0.00  0.00    +0.000 A 
ENDBRANCH   5  13
BRANCH   4  19
ATOM     19  C   UNL     1      -6.625  -0.774   1.392  0.00  0.00    +0.000 C 
BRANCH  19  20
ATOM     20  C   UNL     1      -6.596  -2.289   1.518  0.00  0.00    +0.000 C 
BRANCH  20  21
ATOM     21  C   UNL     1      -5.315  -2.714   2.218  0.00  0.00    +0.000 C 
BRANCH  21  22
ATOM     22  N   UNL     1      -5.263  -2.109   3.557  0.00  0.00    +0.000 NA
ATOM     23  C   UNL     1      -6.333  -1.102   3.678  0.00  0.00    +0.000 C 
ATOM     24  C   UNL     1      -6.086   0.015   2.688  0.00  0.00    +0.000 C 
ATOM     25  O   UNL     1      -4.806   0.611   2.898  0.00  0.00    +0.000 OA
ATOM     26  C   UNL     1      -3.781  -0.369   2.742  0.00  0.00    +0.000 C 
ATOM     27  C   UNL     1      -3.937  -1.490   3.753  0.00  0.00    +0.000 C 
ENDBRANCH  21  22
ENDBRANCH  20  21
ENDBRANCH  19  20
ENDBRANCH   4  19
TORSDOF 6
