REMARK  Name = 
REMARK  6 active torsions:
REMARK  status: ('A' for Active; 'I' for Inactive)
REMARK    1  A    between atoms: N_1  and  C_2
REMARK    2  A    between atoms: C_2  and  C_3
REMARK    3  A    between atoms: C_6  and  C_7
REMARK    4  A    between atoms: C_9  and  C_10
REMARK    5  A    between atoms: C_15  and  O_16
REMARK    6  A    between atoms: C_18  and  C_19
REMARK                            x       y       z     vdW  Elec       q    Type
REMARK                         _______ _______ _______ _____ _____    ______ ____
ROOT
ATOM      1  C   UNL     1       1.738  -5.638   2.939  0.00  0.00    +0.000 A 
ATOM      2  N   UNL     1       1.128  -5.800   4.084  0.00  0.00    +0.000 NA
ATOM      3  C   UNL     1       1.822  -6.828   4.730  0.00  0.00    +0.000 A 
ATOM      4  C   UNL     1       2.846  -7.263   3.942  0.00  0.00    +0.000 A 
ATOM      5  N   UNL     1       2.791  -6.514   2.786  0.00  0.00    +0.000 N 
ATOM      6  H   UNL     1       3.407  -6.594   1.976  0.00  0.00    +0.000 HD
ENDROOT
BRANCH   3   7
ATOM      7  C   UNL     1       1.484  -7.379   6.106  0.00  0.00    +0.000 A 
ATOM      8  C   UNL     1       2.467  -7.430   7.081  0.00  0.00    +0.000 A 
ATOM      9  C   UNL     1       2.182  -8.330   8.135  0.00  0.00    +0.000 A 
ATOM     10  C   UNL     1       0.983  -8.814   8.403  0.00  0.00    +0.000 A 
ATOM     11 CL   UNL     1       0.618  -9.609   9.953  0.00  0.00    +0.000 Cl
ATOM     12  C   UNL     1       0.037  -8.672   7.426  0.00  0.00    +0.000 A 
ATOM     13  C   UNL     1       0.286  -7.916   6.306  0.00  0.00    +0.000 A 
BRANCH  12  14
ATOM     14  O   UNL     1      -1.220  -9.315   7.571  0.00  0.00    +0.000 OA
ATOM     15  H   UNL     1      -1.917  -9.216   6.860  0.00  0.00    +0.000 HD
ENDBRANCH  12  14
ENDBRANCH   3   7
BRANCH   1  19
ATOM     16  C   UNL     1       1.037  -2.376   0.273  0.00  0.00    +0.000 A 
ATOM     17  C   UNL     1       0.927  -3.668  -0.214  0.00  0.00    +0.000 A 
ATOM     18  C   UNL     1       0.961  -4.664   0.790  0.00  0.00    +0.000 A 
ATOM     19  C   UNL     1       1.409  -4.475   2.018  0.00  0.00    +0.000 A 
ATOM     20  C   UNL     1       1.561  -3.175   2.416  0.00  0.00    +0.000 A 
ATOM     21  C   UNL     1       1.416  -2.141   1.524  0.00  0.00    +0.000 A 
BRANCH  16  22
ATOM     22  C   UNL     1       0.530  -1.246  -0.609  0.00  0.00    +0.000 C 
BRANCH  22  23
ATOM     23  N   UNL     1       1.020   0.038  -0.090  0.00  0.00    +0.000 NA
ATOM     24  H   UNL     1       0.680   0.172   0.862  0.00  0.00    +0.000 HD
ATOM     25  H   UNL     1       2.041   0.038  -0.090  0.00  0.00    +0.000 HD
ENDBRANCH  22  23
ENDBRANCH  16  22
ENDBRANCH   1  19
BRANCH   4  26
ATOM     26  C   UNL     1       3.850  -8.355   4.274  0.00  0.00    +0.000 A 
ATOM     27  C   UNL     1       3.407  -9.655   4.530  0.00  0.00    +0.000 A 
ATOM     28  C   UNL     1       4.328 -10.640   4.825  0.00  0.00    +0.000 A 
ATOM     29  N   UNL     1       5.646 -10.399   4.898  0.00  0.00    +0.000 NA
ATOM     30  C   UNL     1       6.062  -9.148   4.673  0.00  0.00    +0.000 A 
ATOM     31  C   UNL     1       5.216  -8.113   4.348  0.00  0.00    +0.000 A 
ENDBRANCH   4  26
TORSDOF 6
