
 OpenBabel03132514253D

 44 47  0  0  0  0  0  0  0  0999 V2000
    1.0205    0.0385   -0.0900 N   0  0  0  0  0  0  0  0  0  0  0  0
    0.5305   -1.2465   -0.6094 C   0  0  0  0  0  0  0  0  0  0  0  0
    1.0371   -2.3759    0.2728 C   0  0  0  0  0  0  0  0  0  0  0  0
    0.9270   -3.6679   -0.2141 C   0  0  0  0  0  0  0  0  0  0  0  0
    0.9607   -4.6639    0.7903 C   0  0  0  0  0  0  0  0  0  0  0  0
    1.4089   -4.4746    2.0180 C   0  0  0  0  0  0  0  0  0  0  0  0
    1.7380   -5.6383    2.9388 C   0  0  0  0  0  0  0  0  0  0  0  0
    1.1281   -5.8003    4.0840 N   0  0  0  0  0  0  0  0  0  0  0  0
    1.8220   -6.8281    4.7298 C   0  0  0  0  0  0  0  0  0  0  0  0
    1.4843   -7.3790    6.1056 C   0  0  0  0  0  0  0  0  0  0  0  0
    2.4667   -7.4299    7.0808 C   0  0  0  0  0  0  0  0  0  0  0  0
    2.1821   -8.3300    8.1348 C   0  0  0  0  0  0  0  0  0  0  0  0
    0.9831   -8.8143    8.4029 C   0  0  0  0  0  0  0  0  0  0  0  0
    0.6179   -9.6093    9.9531 Cl  0  0  0  0  0  0  0  0  0  0  0  0
    0.0374   -8.6721    7.4258 C   0  0  0  0  0  0  0  0  0  0  0  0
   -1.2205   -9.3149    7.5706 O   0  0  0  0  0  0  0  0  0  0  0  0
    0.2865   -7.9161    6.3059 C   0  0  0  0  0  0  0  0  0  0  0  0
    2.8460   -7.2626    3.9425 C   0  0  0  0  0  0  0  0  0  0  0  0
    3.8499   -8.3548    4.2739 C   0  0  0  0  0  0  0  0  0  0  0  0
    3.4069   -9.6548    4.5302 C   0  0  0  0  0  0  0  0  0  0  0  0
    4.3281  -10.6404    4.8250 C   0  0  0  0  0  0  0  0  0  0  0  0
    5.6463  -10.3985    4.8979 N   0  0  0  0  0  0  0  0  0  0  0  0
    6.0623   -9.1484    4.6727 C   0  0  0  0  0  0  0  0  0  0  0  0
    5.2158   -8.1132    4.3483 C   0  0  0  0  0  0  0  0  0  0  0  0
    2.7906   -6.5145    2.7856 N   0  0  0  0  0  0  0  0  0  0  0  0
    1.5610   -3.1754    2.4163 C   0  0  0  0  0  0  0  0  0  0  0  0
    1.4160   -2.1411    1.5236 C   0  0  0  0  0  0  0  0  0  0  0  0
    0.6805    0.1722    0.8623 H   0  0  0  0  0  0  0  0  0  0  0  0
    2.0405    0.0385   -0.0900 H   0  0  0  0  0  0  0  0  0  0  0  0
   -0.5395   -1.2465   -0.6094 H   0  0  0  0  0  0  0  0  0  0  0  0
    0.8871   -1.3867   -1.6084 H   0  0  0  0  0  0  0  0  0  0  0  0
    0.8257   -3.8924   -1.2554 H   0  0  0  0  0  0  0  0  0  0  0  0
    0.5977   -5.6382    0.5376 H   0  0  0  0  0  0  0  0  0  0  0  0
    3.3598   -6.8420    7.0406 H   0  0  0  0  0  0  0  0  0  0  0  0
    2.9949   -8.6399    8.7579 H   0  0  0  0  0  0  0  0  0  0  0  0
   -1.9174   -9.2157    6.8603 H   0  0  0  0  0  0  0  0  0  0  0  0
   -0.4917   -7.7587    5.5885 H   0  0  0  0  0  0  0  0  0  0  0  0
    2.3624   -9.8848    4.4983 H   0  0  0  0  0  0  0  0  0  0  0  0
    3.9773  -11.6357    5.0023 H   0  0  0  0  0  0  0  0  0  0  0  0
    7.1094   -8.9416    4.7487 H   0  0  0  0  0  0  0  0  0  0  0  0
    5.6046   -7.1350    4.1558 H   0  0  0  0  0  0  0  0  0  0  0  0
    3.4067   -6.5939    1.9765 H   0  0  0  0  0  0  0  0  0  0  0  0
    1.7964   -2.9612    3.4379 H   0  0  0  0  0  0  0  0  0  0  0  0
    1.6100   -1.1373    1.8392 H   0  0  0  0  0  0  0  0  0  0  0  0
  1  2  1  0  0  0  0
  1 28  1  0  0  0  0
  1 29  1  0  0  0  0
  2  3  1  0  0  0  0
  2 30  1  0  0  0  0
  2 31  1  0  0  0  0
  3  4  1  0  0  0  0
  3 27  2  0  0  0  0
  4  5  2  0  0  0  0
  4 32  1  0  0  0  0
  5  6  1  0  0  0  0
  5 33  1  0  0  0  0
  6  7  1  0  0  0  0
  6 26  2  0  0  0  0
  7  8  2  0  0  0  0
  7 25  1  0  0  0  0
  8  9  1  0  0  0  0
  9 10  1  0  0  0  0
  9 18  2  0  0  0  0
 10 11  1  0  0  0  0
 10 17  2  0  0  0  0
 11 12  2  0  0  0  0
 11 34  1  0  0  0  0
 12 13  1  0  0  0  0
 12 35  1  0  0  0  0
 13 14  1  0  0  0  0
 13 15  2  0  0  0  0
 15 16  1  0  0  0  0
 15 17  1  0  0  0  0
 16 36  1  0  0  0  0
 17 37  1  0  0  0  0
 18 19  1  0  0  0  0
 18 25  1  0  0  0  0
 19 20  1  0  0  0  0
 19 24  2  0  0  0  0
 20 21  2  0  0  0  0
 20 38  1  0  0  0  0
 21 22  1  0  0  0  0
 21 39  1  0  0  0  0
 22 23  2  0  0  0  0
 23 24  1  0  0  0  0
 23 40  1  0  0  0  0
 24 41  1  0  0  0  0
 25 42  1  0  0  0  0
 26 27  1  0  0  0  0
 26 43  1  0  0  0  0
 27 44  1  0  0  0  0
M  END
