
 OpenBabel03132514253D

 45 49  0  0  0  0  0  0  0  0999 V2000
    0.9362   -0.0487   -0.0597 N   0  0  0  0  0  0  0  0  0  0  0  0
    0.2012   -0.2130   -1.3221 C   0  0  0  0  0  0  0  0  0  0  0  0
   -1.0697   -0.2130   -1.3221 O   0  0  0  0  0  0  0  0  0  0  0  0
    0.9612   -0.3828   -2.6274 C   0  0  0  0  0  0  0  0  0  0  0  0
    0.5683    0.3437   -3.7393 C   0  0  0  0  0  0  0  0  0  0  0  0
    1.1577   -0.0951   -4.9485 C   0  0  0  0  0  0  0  0  0  0  0  0
    2.2349   -0.8554   -5.0239 C   0  0  0  0  0  0  0  0  0  0  0  0
    3.0145   -1.0135   -6.3192 C   0  0  0  0  0  0  0  0  0  0  0  0
    3.2011   -2.1578   -6.9236 N   0  0  0  0  0  0  0  0  0  0  0  0
    3.9591   -1.8564   -8.0592 C   0  0  0  0  0  0  0  0  0  0  0  0
    4.4319   -2.8708   -9.0877 C   0  0  0  0  0  0  0  0  0  0  0  0
    5.8041   -3.0556   -9.1257 C   0  0  0  0  0  0  0  0  0  0  0  0
    6.2409   -3.8923  -10.1798 C   0  0  0  0  0  0  0  0  0  0  0  0
    5.4609   -4.7197  -10.8516 C   0  0  0  0  0  0  0  0  0  0  0  0
    4.1137   -4.5282  -10.7187 C   0  0  0  0  0  0  0  0  0  0  0  0
    3.6139   -3.6342   -9.8028 C   0  0  0  0  0  0  0  0  0  0  0  0
    3.2180   -5.2639  -11.5390 O   0  0  0  0  0  0  0  0  0  0  0  0
    1.8169   -5.0731  -11.4095 C   0  0  0  0  0  0  0  0  0  0  0  0
    5.9929   -5.7525  -11.6680 O   0  0  0  0  0  0  0  0  0  0  0  0
    4.2111   -0.5179   -8.1069 C   0  0  0  0  0  0  0  0  0  0  0  0
    5.0108    0.2214   -9.1673 C   0  0  0  0  0  0  0  0  0  0  0  0
    4.5362    0.1312  -10.4610 C   0  0  0  0  0  0  0  0  0  0  0  0
    5.2901    0.6665  -11.5083 C   0  0  0  0  0  0  0  0  0  0  0  0
    6.4897    1.2885  -11.1863 C   0  0  0  0  0  0  0  0  0  0  0  0
    6.8763    1.3556   -9.8673 C   0  0  0  0  0  0  0  0  0  0  0  0
    6.1697    0.8266   -8.8637 N   0  0  0  0  0  0  0  0  0  0  0  0
    3.5965    0.0325   -7.0020 N   0  0  0  0  0  0  0  0  0  0  0  0
    2.6111   -1.4927   -3.8743 C   0  0  0  0  0  0  0  0  0  0  0  0
    1.9958   -1.2136   -2.6778 C   0  0  0  0  0  0  0  0  0  0  0  0
    0.4262    0.0652    0.8163 H   0  0  0  0  0  0  0  0  0  0  0  0
    1.9562   -0.0487   -0.0597 H   0  0  0  0  0  0  0  0  0  0  0  0
   -0.1185    1.1626   -3.6885 H   0  0  0  0  0  0  0  0  0  0  0  0
    0.6987    0.2102   -5.8656 H   0  0  0  0  0  0  0  0  0  0  0  0
    6.4731   -2.6065   -8.4217 H   0  0  0  0  0  0  0  0  0  0  0  0
    7.2750   -3.8519  -10.4516 H   0  0  0  0  0  0  0  0  0  0  0  0
    2.5561   -3.5524   -9.6645 H   0  0  0  0  0  0  0  0  0  0  0  0
    1.5756   -4.0511  -11.6152 H   0  0  0  0  0  0  0  0  0  0  0  0
    1.3049   -5.7069  -12.1030 H   0  0  0  0  0  0  0  0  0  0  0  0
    3.5987   -0.3448  -10.6596 H   0  0  0  0  0  0  0  0  0  0  0  0
    4.9554    0.5997  -12.5224 H   0  0  0  0  0  0  0  0  0  0  0  0
    7.1050    1.7098  -11.9536 H   0  0  0  0  0  0  0  0  0  0  0  0
    7.7914    1.8581   -9.6327 H   0  0  0  0  0  0  0  0  0  0  0  0
    3.5767    1.0185   -6.7417 H   0  0  0  0  0  0  0  0  0  0  0  0
    3.3960   -2.2192   -3.9067 H   0  0  0  0  0  0  0  0  0  0  0  0
    2.3536   -1.6700   -1.7786 H   0  0  0  0  0  0  0  0  0  0  0  0
  1  2  1  0  0  0  0
  1 30  1  0  0  0  0
  1 31  1  0  0  0  0
  2  3  2  0  0  0  0
  2  4  1  0  0  0  0
  4  5  1  0  0  0  0
  4 29  2  0  0  0  0
  5  6  2  0  0  0  0
  5 32  1  0  0  0  0
  6  7  1  0  0  0  0
  6 33  1  0  0  0  0
  7  8  1  0  0  0  0
  7 28  2  0  0  0  0
  8  9  2  0  0  0  0
  8 27  1  0  0  0  0
  9 10  1  0  0  0  0
 10 11  1  0  0  0  0
 10 20  2  0  0  0  0
 11 12  1  0  0  0  0
 11 16  2  0  0  0  0
 12 13  2  0  0  0  0
 12 34  1  0  0  0  0
 13 14  1  0  0  0  0
 13 35  1  0  0  0  0
 14 15  2  0  0  0  0
 14 19  1  0  0  0  0
 15 16  1  0  0  0  0
 15 17  1  0  0  0  0
 16 36  1  0  0  0  0
 17 18  1  0  0  0  0
 18 19  1  0  0  0  0
 18 37  1  0  0  0  0
 18 38  1  0  0  0  0
 20 21  1  0  0  0  0
 20 27  1  0  0  0  0
 21 22  1  0  0  0  0
 21 26  2  0  0  0  0
 22 23  2  0  0  0  0
 22 39  1  0  0  0  0
 23 24  1  0  0  0  0
 23 40  1  0  0  0  0
 24 25  2  0  0  0  0
 24 41  1  0  0  0  0
 25 26  1  0  0  0  0
 25 42  1  0  0  0  0
 27 43  1  0  0  0  0
 28 29  1  0  0  0  0
 28 44  1  0  0  0  0
 29 45  1  0  0  0  0
M  END
