
 OpenBabel03132514253D

 45 48  0  0  0  0  0  0  0  0999 V2000
   -2.3840    0.0070   -0.1160 C   0  0  0  0  0  0  0  0  0  0  0  0
   -0.9810    0.0040    0.3100 N   0  0  0  0  0  0  0  0  0  0  0  0
   -0.3050    1.2050   -0.1940 C   0  0  0  0  0  0  0  0  0  0  0  0
    1.1650    1.2380    0.2190 C   0  0  0  0  0  0  0  0  0  0  0  0
    1.8430   -0.0090   -0.2970 C   0  0  0  0  0  0  0  0  0  0  0  0
    3.2840   -0.0208    0.1866 C   0  0  0  0  0  0  0  0  0  0  0  0
    4.2365   -0.0291   -0.6546 O   0  0  0  0  0  0  0  0  0  0  0  0
    3.5757   -0.0225    1.6274 N   0  0  0  0  0  0  0  0  0  0  0  0
    2.4739   -0.0128    2.6004 C   0  0  0  0  0  0  0  0  0  0  0  0
    2.3985    0.7321    3.6643 N   0  0  0  0  0  0  0  0  0  0  0  0
    1.2094    0.4721    4.3521 N   0  0  0  0  0  0  0  0  0  0  0  0
    0.5011   -0.4970    3.6713 C   0  0  0  0  0  0  0  0  0  0  0  0
   -0.7189   -1.1260    3.8915 N   0  0  0  0  0  0  0  0  0  0  0  0
   -1.1732   -2.0759    3.0043 N   0  0  0  0  0  0  0  0  0  0  0  0
   -0.4130   -2.4230    1.8873 C   0  0  0  0  0  0  0  0  0  0  0  0
   -0.9231   -3.4832    0.9248 C   0  0  0  0  0  0  0  0  0  0  0  0
   -0.0431   -4.5301    0.6728 C   0  0  0  0  0  0  0  0  0  0  0  0
   -0.5989   -5.7001    0.1088 C   0  0  0  0  0  0  0  0  0  0  0  0
   -1.6419   -5.5140   -0.7967 C   0  0  0  0  0  0  0  0  0  0  0  0
   -2.3408   -4.4010   -0.7248 C   0  0  0  0  0  0  0  0  0  0  0  0
   -2.0454   -3.4315    0.2400 C   0  0  0  0  0  0  0  0  0  0  0  0
    0.8006   -1.8081    1.6519 C   0  0  0  0  0  0  0  0  0  0  0  0
    1.2688   -0.8386    2.5439 C   0  0  0  0  0  0  0  0  0  0  0  0
    1.1460   -1.2410    0.2190 C   0  0  0  0  0  0  0  0  0  0  0  0
   -0.3220   -1.2040   -0.1920 C   0  0  0  0  0  0  0  0  0  0  0  0
   -2.8726    0.8765    0.2715 H   0  0  0  0  0  0  0  0  0  0  0  0
   -2.4322    0.0174   -1.1849 H   0  0  0  0  0  0  0  0  0  0  0  0
   -2.8711   -0.8707    0.2544 H   0  0  0  0  0  0  0  0  0  0  0  0
   -0.3521    1.1918   -1.2629 H   0  0  0  0  0  0  0  0  0  0  0  0
   -0.7957    2.0706    0.1995 H   0  0  0  0  0  0  0  0  0  0  0  0
    1.2424    1.2794    1.2854 H   0  0  0  0  0  0  0  0  0  0  0  0
    1.6366    2.1029   -0.1986 H   0  0  0  0  0  0  0  0  0  0  0  0
    1.8127   -0.0093   -1.3666 H   0  0  0  0  0  0  0  0  0  0  0  0
    4.5427   -0.0304    1.9519 H   0  0  0  0  0  0  0  0  0  0  0  0
    0.9134    0.9251    5.2167 H   0  0  0  0  0  0  0  0  0  0  0  0
    1.0008   -4.4533    0.8945 H   0  0  0  0  0  0  0  0  0  0  0  0
   -0.2390   -6.6752    0.3629 H   0  0  0  0  0  0  0  0  0  0  0  0
   -1.8687   -6.2573   -1.5321 H   0  0  0  0  0  0  0  0  0  0  0  0
   -3.1442   -4.2357   -1.4119 H   0  0  0  0  0  0  0  0  0  0  0  0
   -2.7404   -2.6387    0.4229 H   0  0  0  0  0  0  0  0  0  0  0  0
    1.3796   -2.0720    0.7916 H   0  0  0  0  0  0  0  0  0  0  0  0
    1.2170   -1.2705    1.2862 H   0  0  0  0  0  0  0  0  0  0  0  0
    1.6100   -2.1125   -0.1934 H   0  0  0  0  0  0  0  0  0  0  0  0
   -0.8132   -2.0574    0.2266 H   0  0  0  0  0  0  0  0  0  0  0  0
   -0.3862   -1.2187   -1.2600 H   0  0  0  0  0  0  0  0  0  0  0  0
  1  2  1  0  0  0  0
  1 26  1  0  0  0  0
  1 27  1  0  0  0  0
  1 28  1  0  0  0  0
  2  3  1  0  0  0  0
  2 25  1  0  0  0  0
  3  4  1  0  0  0  0
  3 29  1  0  0  0  0
  3 30  1  0  0  0  0
  4  5  1  0  0  0  0
  4 31  1  0  0  0  0
  4 32  1  0  0  0  0
  5  6  1  0  0  0  0
  5 24  1  0  0  0  0
  5 33  1  0  0  0  0
  6  7  2  0  0  0  0
  6  8  1  0  0  0  0
  8  9  1  0  0  0  0
  8 34  1  0  0  0  0
  9 10  2  0  0  0  0
  9 23  1  0  0  0  0
 10 11  1  0  0  0  0
 11 12  1  0  0  0  0
 11 35  1  0  0  0  0
 12 13  1  0  0  0  0
 12 23  2  0  0  0  0
 13 14  2  0  0  0  0
 14 15  1  0  0  0  0
 15 16  1  0  0  0  0
 15 22  2  0  0  0  0
 16 17  1  0  0  0  0
 16 21  2  0  0  0  0
 17 18  2  0  0  0  0
 17 36  1  0  0  0  0
 18 19  1  0  0  0  0
 18 37  1  0  0  0  0
 19 20  2  0  0  0  0
 19 38  1  0  0  0  0
 20 21  1  0  0  0  0
 20 39  1  0  0  0  0
 21 40  1  0  0  0  0
 22 23  1  0  0  0  0
 22 41  1  0  0  0  0
 24 25  1  0  0  0  0
 24 42  1  0  0  0  0
 24 43  1  0  0  0  0
 25 44  1  0  0  0  0
 25 45  1  0  0  0  0
M  END
