REMARK  Name = 
REMARK  4 active torsions:
REMARK  status: ('A' for Active; 'I' for Inactive)
REMARK    1  A    between atoms: C_1  and  C_2
REMARK    2  A    between atoms: C_2  and  N_3
REMARK    3  A    between atoms: C_6  and  C_7
REMARK    4  A    between atoms: C_16  and  C_17
REMARK                            x       y       z     vdW  Elec       q    Type
REMARK                         _______ _______ _______ _____ _____    ______ ____
ROOT
ATOM      1  C   UNL     1       2.496   3.742   4.719  0.00  0.00    +0.000 C 
ATOM      2  O   UNL     1       3.276   4.743   4.658  0.00  0.00    +0.000 OA
ATOM      3  N   UNL     1       1.797   3.430   5.974  0.00  0.00    +0.000 N 
ATOM      4  C   UNL     1       0.894   2.272   6.043  0.00  0.00    +0.000 A 
ATOM      5  N   UNL     1      -0.290   2.257   6.583  0.00  0.00    +0.000 NA
ATOM      6  N   UNL     1      -0.858   0.985   6.465  0.00  0.00    +0.000 N 
ATOM      7  C   UNL     1       0.030   0.157   5.810  0.00  0.00    +0.000 A 
ATOM      8  N   UNL     1      -0.007  -1.179   5.428  0.00  0.00    +0.000 NA
ATOM      9  N   UNL     1       1.063  -1.736   4.765  0.00  0.00    +0.000 NA
ATOM     10  C   UNL     1       2.195  -0.971   4.479  0.00  0.00    +0.000 A 
ATOM     11  C   UNL     1       2.249   0.358   4.850  0.00  0.00    +0.000 A 
ATOM     12  C   UNL     1       1.165   0.934   5.520  0.00  0.00    +0.000 A 
ATOM     13  H   UNL     1       1.938   4.016   6.796  0.00  0.00    +0.000 HD
ATOM     14  H   UNL     1      -1.780   0.714   6.807  0.00  0.00    +0.000 HD
ENDROOT
BRANCH  10  15
ATOM     15  C   UNL     1       3.373  -1.604   3.757  0.00  0.00    +0.000 A 
ATOM     16  C   UNL     1       4.649  -1.628   4.311  0.00  0.00    +0.000 A 
ATOM     17  C   UNL     1       5.536  -2.607   3.812  0.00  0.00    +0.000 A 
ATOM     18  C   UNL     1       5.426  -2.905   2.454  0.00  0.00    +0.000 A 
ATOM     19  C   UNL     1       4.282  -2.659   1.851  0.00  0.00    +0.000 A 
ATOM     20  F   UNL     1       4.151  -2.930   0.556  0.00  0.00    +0.000 F 
ATOM     21  C   UNL     1       3.204  -2.114   2.557  0.00  0.00    +0.000 A 
ATOM     22  F   UNL     1       1.992  -2.112   2.007  0.00  0.00    +0.000 F 
ENDBRANCH  10  15
BRANCH   1  26
ATOM     23  N   UNL     1       0.907   0.528   2.449  0.00  0.00    +0.000 NA
ATOM     24  C   UNL     1       2.354   0.495   2.696  0.00  0.00    +0.000 C 
ATOM     25  C   UNL     1       2.722   1.441   3.818  0.00  0.00    +0.000 C 
ATOM     26  C   UNL     1       2.285   2.867   3.493  0.00  0.00    +0.000 C 
ATOM     27  C   UNL     1       0.806   2.892   3.112  0.00  0.00    +0.000 C 
ATOM     28  C   UNL     1       0.519   1.872   2.023  0.00  0.00    +0.000 C 
BRANCH  23  30
ATOM     29  C   UNL     1       0.923   0.023   0.060  0.00  0.00    +0.000 C 
ATOM     30  C   UNL     1       0.417  -0.408   1.427  0.00  0.00    +0.000 C 
ENDBRANCH  23  30
ENDBRANCH   1  26
TORSDOF 3
