REMARK  Name = 
REMARK  4 active torsions:
REMARK  status: ('A' for Active; 'I' for Inactive)
REMARK    1  A    between atoms: O_1  and  C_2
REMARK    2  A    between atoms: C_6  and  C_7
REMARK    3  A    between atoms: C_9  and  C_10
REMARK    4  A    between atoms: C_17  and  C_18
REMARK                            x       y       z     vdW  Elec       q    Type
REMARK                         _______ _______ _______ _____ _____    ______ ____
ROOT
ATOM      1  C   UNL     1      -2.038  -2.457  -0.004  0.00  0.00    +0.000 A 
ATOM      2  N   UNL     1      -1.995  -3.437   0.992  0.00  0.00    +0.000 NA
ATOM      3  C   UNL     1      -2.836  -4.360   0.605  0.00  0.00    +0.000 A 
ATOM      4  N   UNL     1      -3.423  -4.051  -0.603  0.00  0.00    +0.000 N 
ATOM      5  C   UNL     1      -2.918  -2.824  -0.978  0.00  0.00    +0.000 A 
ATOM      6  H   UNL     1      -4.098  -4.617  -1.117  0.00  0.00    +0.000 HD
ENDROOT
BRANCH   1  11
ATOM      7  C   UNL     1       0.885  -0.025  -0.001  0.00  0.00    +0.000 A 
ATOM      8  C   UNL     1       0.224   1.180   0.016  0.00  0.00    +0.000 A 
ATOM      9  C   UNL     1      -1.157   1.212   0.000  0.00  0.00    +0.000 A 
ATOM     10  C   UNL     1      -1.877   0.042  -0.014  0.00  0.00    +0.000 A 
ATOM     11  C   UNL     1      -1.226  -1.172  -0.001  0.00  0.00    +0.000 A 
ATOM     12  C   UNL     1       0.171  -1.241   0.015  0.00  0.00    +0.000 A 
BRANCH   7  13
ATOM     13  O   UNL     1       2.237   0.005  -0.011  0.00  0.00    +0.000 OA
ATOM     14  H   UNL     1       2.756  -0.850  -0.023  0.00  0.00    +0.000 HD
ENDBRANCH   7  13
ENDBRANCH   1  11
BRANCH   3  15
ATOM     15  C   UNL     1      -3.130  -5.626   1.394  0.00  0.00    +0.000 A 
ATOM     16  C   UNL     1      -3.012  -6.851   0.759  0.00  0.00    +0.000 A 
ATOM     17  C   UNL     1      -3.716  -7.899   1.398  0.00  0.00    +0.000 A 
ATOM     18  C   UNL     1      -4.146  -7.859   2.646  0.00  0.00    +0.000 A 
ATOM     19  C   UNL     1      -4.175  -6.628   3.241  0.00  0.00    +0.000 A 
ATOM     20  C   UNL     1      -3.625  -5.532   2.623  0.00  0.00    +0.000 A 
ENDBRANCH   3  15
BRANCH   5  21
ATOM     21  C   UNL     1      -3.271  -2.038  -2.230  0.00  0.00    +0.000 A 
ATOM     22  C   UNL     1      -2.265  -1.725  -3.148  0.00  0.00    +0.000 A 
ATOM     23  C   UNL     1      -2.606  -1.173  -4.367  0.00  0.00    +0.000 A 
ATOM     24  N   UNL     1      -3.876  -0.902  -4.708  0.00  0.00    +0.000 NA
ATOM     25  C   UNL     1      -4.832  -1.184  -3.817  0.00  0.00    +0.000 A 
ATOM     26  C   UNL     1      -4.583  -1.757  -2.591  0.00  0.00    +0.000 A 
ENDBRANCH   5  21
TORSDOF 4
