
 OpenBabel03132514253D

 24 26  0  0  0  0  0  0  0  0999 V2000
    1.0749    0.0634   -0.0192 C   0  0  0  0  0  0  0  0  0  0  0  0
    0.5849    1.1181    0.8799 N   0  0  0  0  0  0  0  0  0  0  0  0
   -0.0359    0.9991    2.0358 C   0  0  0  0  0  0  0  0  0  0  0  0
   -0.5566   -0.3088    2.6090 C   0  0  0  0  0  0  0  0  0  0  0  0
   -2.2766   -0.7180    2.8460 N   0  0  0  0  0  0  0  0  0  0  0  0
   -2.0849   -2.3590    3.3714 O   0  0  0  0  0  0  0  0  0  0  0  0
   -0.7364   -2.5368    3.3492 N   0  0  0  0  0  0  0  0  0  0  0  0
    0.0696   -1.4987    2.9548 C   0  0  0  0  0  0  0  0  0  0  0  0
    1.5318   -1.6401    2.9010 N   0  0  0  0  0  0  0  0  0  0  0  0
   -0.1428    2.1792    2.6287 N   0  0  0  0  0  0  0  0  0  0  0  0
    0.4211    3.1004    1.8490 C   0  0  0  0  0  0  0  0  0  0  0  0
    0.6159    4.4950    1.9339 C   0  0  0  0  0  0  0  0  0  0  0  0
    1.2501    5.1377    0.9294 N   0  0  0  0  0  0  0  0  0  0  0  0
    1.7006    4.4739   -0.1677 C   0  0  0  0  0  0  0  0  0  0  0  0
    1.5469    3.1377   -0.3016 C   0  0  0  0  0  0  0  0  0  0  0  0
    0.9008    2.4108    0.7003 C   0  0  0  0  0  0  0  0  0  0  0  0
    0.7183    0.2463   -1.0113 H   0  0  0  0  0  0  0  0  0  0  0  0
    0.7183   -0.8872    0.3185 H   0  0  0  0  0  0  0  0  0  0  0  0
    2.1449    0.0634   -0.0192 H   0  0  0  0  0  0  0  0  0  0  0  0
    1.9684   -2.5248    3.1601 H   0  0  0  0  0  0  0  0  0  0  0  0
    2.1097   -0.8537    2.6044 H   0  0  0  0  0  0  0  0  0  0  0  0
    0.2646    5.0385    2.7861 H   0  0  0  0  0  0  0  0  0  0  0  0
    2.1893    5.0231   -0.9452 H   0  0  0  0  0  0  0  0  0  0  0  0
    1.9190    2.6389   -1.1720 H   0  0  0  0  0  0  0  0  0  0  0  0
  1  2  1  0  0  0  0
  1 17  1  0  0  0  0
  1 18  1  0  0  0  0
  1 19  1  0  0  0  0
  2  3  1  0  0  0  0
  2 16  1  0  0  0  0
  3  4  1  0  0  0  0
  3 10  2  0  0  0  0
  4  5  2  0  0  0  0
  4  8  1  0  0  0  0
  5  6  1  0  0  0  0
  6  7  1  0  0  0  0
  7  8  2  0  0  0  0
  8  9  1  0  0  0  0
  9 20  1  0  0  0  0
  9 21  1  0  0  0  0
 10 11  1  0  0  0  0
 11 12  1  0  0  0  0
 11 16  2  0  0  0  0
 12 13  2  0  0  0  0
 12 22  1  0  0  0  0
 13 14  1  0  0  0  0
 14 15  2  0  0  0  0
 14 23  1  0  0  0  0
 15 16  1  0  0  0  0
 15 24  1  0  0  0  0
M  END
