REMARK  Name = 
REMARK  8 active torsions:
REMARK  status: ('A' for Active; 'I' for Inactive)
REMARK    1  A    between atoms: C_1  and  O_2
REMARK    2  A    between atoms: O_2  and  C_3
REMARK    3  A    between atoms: C_3  and  C_4
REMARK    4  A    between atoms: C_3  and  C_26
REMARK    5  A    between atoms: N_6  and  C_7
REMARK    6  A    between atoms: C_13  and  C_14
REMARK    7  A    between atoms: C_18  and  S_19
REMARK    8  A    between atoms: S_19  and  N_20
REMARK                            x       y       z     vdW  Elec       q    Type
REMARK                         _______ _______ _______ _____ _____    ______ ____
ROOT
ATOM      1  C   UNL     1      -1.886   2.374   0.493  0.00  0.00    +0.000 A 
ATOM      2  C   UNL     1      -1.648   1.411  -0.508  0.00  0.00    +0.000 A 
ATOM      3  C   UNL     1      -2.513   1.288  -1.566  0.00  0.00    +0.000 A 
ATOM      4  C   UNL     1      -3.618   2.156  -1.591  0.00  0.00    +0.000 A 
ATOM      5  N   UNL     1      -4.635   2.285  -2.480  0.00  0.00    +0.000 N 
ATOM      6  N   UNL     1      -5.519   3.263  -2.100  0.00  0.00    +0.000 NA
ATOM      7  C   UNL     1      -5.053   3.759  -0.970  0.00  0.00    +0.000 A 
ATOM      8  C   UNL     1      -3.848   3.111  -0.580  0.00  0.00    +0.000 A 
ATOM      9  C   UNL     1      -2.961   3.235   0.493  0.00  0.00    +0.000 A 
ATOM     10  H   UNL     1      -4.730   1.723  -3.326  0.00  0.00    +0.000 HD
ENDROOT
BRANCH   7  11
ATOM     11  C   UNL     1      -5.719   4.877  -0.185  0.00  0.00    +0.000 A 
ATOM     12  C   UNL     1      -7.053   4.698   0.143  0.00  0.00    +0.000 A 
ATOM     13  C   UNL     1      -7.730   5.897   0.466  0.00  0.00    +0.000 A 
ATOM     14  C   UNL     1      -7.134   7.029   0.792  0.00  0.00    +0.000 A 
ATOM     15  C   UNL     1      -5.800   7.119   0.505  0.00  0.00    +0.000 A 
ATOM     16  C   UNL     1      -5.098   6.025   0.060  0.00  0.00    +0.000 A 
BRANCH  15  17
ATOM     17  S   UNL     1      -4.947   8.702   0.713  0.00  0.00    +0.000 S 
ATOM     18  O   UNL     1      -5.048   9.148   2.173  0.00  0.00    +0.000 OA
ATOM     19  O   UNL     1      -3.474   8.542   0.328  0.00  0.00    +0.000 OA
BRANCH  17  20
ATOM     20  N   UNL     1      -5.696   9.912  -0.323  0.00  0.00    +0.000 NA
ATOM     21  H   UNL     1      -5.215  10.804  -0.206  0.00  0.00    +0.000 HD
ATOM     22  H   UNL     1      -5.629   9.615  -1.296  0.00  0.00    +0.000 HD
ENDBRANCH  17  20
ENDBRANCH  15  17
ENDBRANCH   7  11
BRANCH   1  25
ATOM     23  C   UNL     1       0.514   2.442   1.339  0.00  0.00    +0.000 C 
ATOM     24  O   UNL     1       1.340   2.520   2.302  0.00  0.00    +0.000 OA
ATOM     25  N   UNL     1      -0.931   2.464   1.607  0.00  0.00    +0.000 N 
ATOM     26  H   UNL     1      -1.271   2.541   2.566  0.00  0.00    +0.000 HD
BRANCH  23  27
ATOM     27  C   UNL     1       1.021   2.328  -0.089  0.00  0.00    +0.000 C 
BRANCH  27  28
ATOM     28  C   UNL     1       2.541   2.328  -0.089  0.00  0.00    +0.000 A 
ATOM     29  C   UNL     1       3.220   1.121  -0.122  0.00  0.00    +0.000 A 
ATOM     30  C   UNL     1       4.599   1.232   0.175  0.00  0.00    +0.000 A 
ATOM     31  C   UNL     1       5.287   2.358   0.134  0.00  0.00    +0.000 A 
ATOM     32  C   UNL     1       4.557   3.514   0.099  0.00  0.00    +0.000 A 
ATOM     33  C   UNL     1       3.192   3.484  -0.058  0.00  0.00    +0.000 A 
ENDBRANCH  27  28
BRANCH  27  35
ATOM     34  C   UNL     1       1.021   0.016   0.096  0.00  0.00    +0.000 C 
ATOM     35  O   UNL     1       0.548   1.118  -0.664  0.00  0.00    +0.000 OA
ENDBRANCH  27  35
ENDBRANCH  23  27
ENDBRANCH   1  25
TORSDOF 7
