REMARK  Name = 
REMARK  10 active torsions:
REMARK  status: ('A' for Active; 'I' for Inactive)
REMARK    1  A    between atoms: C_1  and  O_2
REMARK    2  A    between atoms: O_2  and  C_3
REMARK    3  A    between atoms: C_7  and  O_8
REMARK    4  A    between atoms: O_8  and  C_9
REMARK    5  A    between atoms: C_10  and  O_11
REMARK    6  A    between atoms: O_11  and  C_12
REMARK    7  A    between atoms: C_18  and  O_19
REMARK    8  A    between atoms: O_19  and  C_20
REMARK    9  A    between atoms: C_25  and  C_26
REMARK   10  A    between atoms: C_27  and  C_28
REMARK                            x       y       z     vdW  Elec       q    Type
REMARK                         _______ _______ _______ _____ _____    ______ ____
ROOT
ATOM      1  C   UNL     1       0.822   1.611  -1.761  0.00  0.00    +0.000 A 
ATOM      2  C   UNL     1       2.159   1.960  -1.609  0.00  0.00    +0.000 A 
ATOM      3  C   UNL     1       2.599   3.188  -2.042  0.00  0.00    +0.000 A 
ATOM      4  C   UNL     1       1.729   4.087  -2.657  0.00  0.00    +0.000 A 
ATOM      5  C   UNL     1       0.379   3.740  -2.799  0.00  0.00    +0.000 A 
ATOM      6  C   UNL     1      -0.067   2.508  -2.345  0.00  0.00    +0.000 A 
ATOM      7  C   UNL     1       2.220   5.366  -3.201  0.00  0.00    +0.000 A 
ATOM      8  C   UNL     1       3.203   5.397  -4.188  0.00  0.00    +0.000 A 
ATOM      9  C   UNL     1       3.691   6.592  -4.663  0.00  0.00    +0.000 A 
ATOM     10  C   UNL     1       3.185   7.790  -4.174  0.00  0.00    +0.000 A 
ATOM     11  C   UNL     1       2.185   7.779  -3.208  0.00  0.00    +0.000 A 
ATOM     12  C   UNL     1       1.701   6.574  -2.719  0.00  0.00    +0.000 A 
ATOM     13  O   UNL     1       1.659   9.004  -2.719  0.00  0.00    +0.000 OA
ATOM     14  C   UNL     1       0.637   8.994  -1.732  0.00  0.00    +0.000 C 
ATOM     15  O   UNL     1       3.688   9.026  -4.660  0.00  0.00    +0.000 OA
ATOM     16  C   UNL     1       3.717   4.082  -4.735  0.00  0.00    +0.000 C 
ATOM     17  C   UNL     1       5.082   3.768  -4.125  0.00  0.00    +0.000 C 
ATOM     18  C   UNL     1       5.760   5.074  -3.745  0.00  0.00    +0.000 C 
ATOM     19  C   UNL     1       4.928   2.912  -2.869  0.00  0.00    +0.000 C 
ATOM     20  C   UNL     1       4.278   1.594  -3.256  0.00  0.00    +0.000 C 
ATOM     21  C   UNL     1       4.040   3.611  -1.840  0.00  0.00    +0.000 C 
ENDROOT
BRANCH   1  23
ATOM     22  C   UNL     1       0.952  -0.087   0.014  0.00  0.00    +0.000 C 
ATOM     23  O   UNL     1       0.479   0.327  -1.259  0.00  0.00    +0.000 OA
ENDBRANCH   1  23
BRANCH   5  24
ATOM     24  O   UNL     1      -0.529   4.646  -3.405  0.00  0.00    +0.000 OA
ATOM     25  C   UNL     1      -1.897   4.292  -3.547  0.00  0.00    +0.000 C 
ENDBRANCH   5  24
BRANCH   6  26
ATOM     26  O   UNL     1      -1.437   2.161  -2.476  0.00  0.00    +0.000 OA
ATOM     27  C   UNL     1      -1.898   0.900  -2.012  0.00  0.00    +0.000 C 
ENDBRANCH   6  26
BRANCH  12  28
ATOM     28  O   UNL     1       0.681   6.566  -1.731  0.00  0.00    +0.000 OA
ATOM     29  C   UNL     1       0.186   5.332  -1.232  0.00  0.00    +0.000 C 
ENDBRANCH  12  28
TORSDOF 4
