REMARK  Name = 
REMARK  3 active torsions:
REMARK  status: ('A' for Active; 'I' for Inactive)
REMARK    1  A    between atoms: C_1  and  O_2
REMARK    2  A    between atoms: O_2  and  C_3
REMARK    3  A    between atoms: C_13  and  O_14
REMARK                            x       y       z     vdW  Elec       q    Type
REMARK                         _______ _______ _______ _____ _____    ______ ____
ROOT
ATOM      1  C   UNL     1       0.874   1.285  -2.093  0.00  0.00    +0.000 A 
ATOM      2  C   UNL     1      -0.057   2.083  -2.697  0.00  0.00    +0.000 A 
ATOM      3  C   UNL     1       0.307   3.294  -3.291  0.00  0.00    +0.000 A 
ATOM      4  C   UNL     1      -0.599   4.183  -3.958  0.00  0.00    +0.000 A 
ATOM      5  C   UNL     1      -0.162   5.335  -4.482  0.00  0.00    +0.000 A 
ATOM      6  C   UNL     1       1.217   5.714  -4.399  0.00  0.00    +0.000 A 
ATOM      7  O   UNL     1       1.718   6.736  -4.822  0.00  0.00    +0.000 OA
ATOM      8  O   UNL     1       2.087   4.850  -3.784  0.00  0.00    +0.000 OA
ATOM      9  C   UNL     1       1.641   3.675  -3.225  0.00  0.00    +0.000 A 
ATOM     10  C   UNL     1       2.592   2.893  -2.588  0.00  0.00    +0.000 A 
ATOM     11  C   UNL     1       2.205   1.684  -2.024  0.00  0.00    +0.000 A 
ENDROOT
BRANCH   1  13
ATOM     12  C   UNL     1       1.004  -0.084  -0.053  0.00  0.00    +0.000 C 
ATOM     13  O   UNL     1       0.530   0.106  -1.379  0.00  0.00    +0.000 OA
ENDBRANCH   1  13
BRANCH  11  14
ATOM     14  O   UNL     1       3.173   0.925  -1.433  0.00  0.00    +0.000 OA
ATOM     15  H   UNL     1       2.935   0.048  -1.016  0.00  0.00    +0.000 HD
ENDBRANCH  11  14
TORSDOF 2
