REMARK  Name = 
REMARK  5 active torsions:
REMARK  status: ('A' for Active; 'I' for Inactive)
REMARK    1  A    between atoms: C_2  and  C_25
REMARK    2  A    between atoms: N_3  and  C_4
REMARK    3  A    between atoms: C_9  and  C_10
REMARK    4  A    between atoms: C_13  and  C_14
REMARK    5  A    between atoms: C_14  and  N_15
REMARK                            x       y       z     vdW  Elec       q    Type
REMARK                         _______ _______ _______ _____ _____    ______ ____
ROOT
ATOM      1  C   UNL     1       4.557  -1.108  -0.545  0.00  0.00    +0.000 A 
ATOM      2  C   UNL     1       5.237  -1.456  -1.701  0.00  0.00    +0.000 A 
ATOM      3  C   UNL     1       6.616  -1.703  -1.503  0.00  0.00    +0.000 A 
ATOM      4  C   UNL     1       7.303  -1.309  -0.446  0.00  0.00    +0.000 A 
ATOM      5  C   UNL     1       6.573  -0.912   0.640  0.00  0.00    +0.000 A 
ATOM      6  C   UNL     1       5.209  -0.773   0.562  0.00  0.00    +0.000 A 
ENDROOT
BRANCH   6   7
ATOM      7  C   UNL     1       4.437  -0.232   1.755  0.00  0.00    +0.000 A 
ATOM      8  C   UNL     1       4.732   0.960   2.353  0.00  0.00    +0.000 A 
ATOM      9  N   UNL     1       3.901   1.046   3.440  0.00  0.00    +0.000 N 
ATOM     10  C   UNL     1       3.634   1.934   4.482  0.00  0.00    +0.000 A 
ATOM     11  C   UNL     1       2.689   1.442   5.286  0.00  0.00    +0.000 A 
ATOM     12  S   UNL     1       2.076  -0.114   4.791  0.00  0.00    +0.000 S 
ATOM     13  C   UNL     1       3.157  -0.095   3.440  0.00  0.00    +0.000 A 
ATOM     14  N   UNL     1       3.433  -0.898   2.444  0.00  0.00    +0.000 NA
BRANCH  10  15
ATOM     15  C   UNL     1       4.323   3.275   4.676  0.00  0.00    +0.000 C 
BRANCH  15  16
ATOM     16  N   UNL     1       3.322   4.351   4.639  0.00  0.00    +0.000 NA
ATOM     17  C   UNL     1       2.960   3.257   3.729  0.00  0.00    +0.000 C 
ATOM     18  C   UNL     1       2.337   2.095   4.478  0.00  0.00    +0.000 C 
ATOM     19  N   UNL     1       1.130   2.537   5.187  0.00  0.00    +0.000 NA
ATOM     20  C   UNL     1       1.492   3.631   6.097  0.00  0.00    +0.000 C 
ATOM     21  C   UNL     1       2.115   4.793   5.348  0.00  0.00    +0.000 C 
ATOM     22  H   UNL     1       0.438   2.865   4.514  0.00  0.00    +0.000 HD
ENDBRANCH  15  16
ENDBRANCH  10  15
ENDBRANCH   6   7
BRANCH   1  25
ATOM     23  O   UNL     1       1.081   0.014   0.057  0.00  0.00    +0.000 OA
ATOM     24  C   UNL     1       2.352   0.014   0.057  0.00  0.00    +0.000 C 
ATOM     25  N   UNL     1       3.087  -1.108  -0.545  0.00  0.00    +0.000 N 
ATOM     26  H   UNL     1       2.577  -1.886  -0.963  0.00  0.00    +0.000 HD
BRANCH  24  27
ATOM     27  C   UNL     1       3.112   1.174   0.679  0.00  0.00    +0.000 A 
ATOM     28  C   UNL     1       4.552   1.174   0.679  0.00  0.00    +0.000 A 
ATOM     29  N   UNL     1       5.249   0.111   0.108  0.00  0.00    +0.000 NA
ATOM     30  C   UNL     1       4.514  -1.011  -0.493  0.00  0.00    +0.000 A 
ATOM     31  C   UNL     1       4.809  -2.337  -0.224  0.00  0.00    +0.000 A 
ATOM     32  C   UNL     1       4.139  -3.256  -1.065  0.00  0.00    +0.000 A 
ATOM     33  C   UNL     1       3.072  -2.968  -1.789  0.00  0.00    +0.000 A 
ATOM     34  C   UNL     1       2.795  -1.641  -1.962  0.00  0.00    +0.000 A 
ATOM     35  C   UNL     1       3.493  -0.677  -1.274  0.00  0.00    +0.000 A 
ATOM     36  N   UNL     1       2.416   2.237   1.249  0.00  0.00    +0.000 NA
ENDBRANCH  24  27
ENDBRANCH   1  25
TORSDOF 5
