
 OpenBabel03132514253D

 57 62  0  0  0  0  0  0  0  0999 V2000
    1.0813    0.0142    0.0565 O   0  0  0  0  0  0  0  0  0  0  0  0
    2.3522    0.0142    0.0565 C   0  0  0  0  0  0  0  0  0  0  0  0
    3.0872   -1.1077   -0.5453 N   0  0  0  0  0  0  0  0  0  0  0  0
    4.5572   -1.1077   -0.5453 C   0  0  0  0  0  0  0  0  0  0  0  0
    5.2367   -1.4564   -1.7008 C   0  0  0  0  0  0  0  0  0  0  0  0
    6.6157   -1.7033   -1.5026 C   0  0  0  0  0  0  0  0  0  0  0  0
    7.3028   -1.3094   -0.4458 C   0  0  0  0  0  0  0  0  0  0  0  0
    6.5733   -0.9123    0.6403 C   0  0  0  0  0  0  0  0  0  0  0  0
    5.2086   -0.7734    0.5625 C   0  0  0  0  0  0  0  0  0  0  0  0
    4.4374   -0.2322    1.7554 C   0  0  0  0  0  0  0  0  0  0  0  0
    4.7320    0.9599    2.3530 C   0  0  0  0  0  0  0  0  0  0  0  0
    3.9013    1.0460    3.4398 N   0  0  0  0  0  0  0  0  0  0  0  0
    3.6341    1.9343    4.4825 C   0  0  0  0  0  0  0  0  0  0  0  0
    4.3233    3.2751    4.6760 C   0  0  0  0  0  0  0  0  0  0  0  0
    3.3219    4.3507    4.6390 N   0  0  0  0  0  0  0  0  0  0  0  0
    2.9604    3.2570    3.7289 C   0  0  0  0  0  0  0  0  0  0  0  0
    2.3372    2.0949    4.4778 C   0  0  0  0  0  0  0  0  0  0  0  0
    1.1304    2.5369    5.1867 N   0  0  0  0  0  0  0  0  0  0  0  0
    1.4919    3.6305    6.0969 C   0  0  0  0  0  0  0  0  0  0  0  0
    2.1151    4.7927    5.3479 C   0  0  0  0  0  0  0  0  0  0  0  0
    2.6892    1.4423    5.2856 C   0  0  0  0  0  0  0  0  0  0  0  0
    2.0763   -0.1137    4.7910 S   0  0  0  0  0  0  0  0  0  0  0  0
    3.1567   -0.0947    3.4399 C   0  0  0  0  0  0  0  0  0  0  0  0
    3.4327   -0.8978    2.4444 N   0  0  0  0  0  0  0  0  0  0  0  0
    3.1122    1.1742    0.6787 C   0  0  0  0  0  0  0  0  0  0  0  0
    4.5524    1.1742    0.6787 C   0  0  0  0  0  0  0  0  0  0  0  0
    5.2488    0.1112    0.1085 N   0  0  0  0  0  0  0  0  0  0  0  0
    4.5138   -1.0106   -0.4932 C   0  0  0  0  0  0  0  0  0  0  0  0
    4.8093   -2.3368   -0.2236 C   0  0  0  0  0  0  0  0  0  0  0  0
    4.1386   -3.2559   -1.0647 C   0  0  0  0  0  0  0  0  0  0  0  0
    3.0724   -2.9683   -1.7889 C   0  0  0  0  0  0  0  0  0  0  0  0
    2.7949   -1.6407   -1.9618 C   0  0  0  0  0  0  0  0  0  0  0  0
    3.4932   -0.6774   -1.2745 C   0  0  0  0  0  0  0  0  0  0  0  0
    2.4158    2.2372    1.2488 N   0  0  0  0  0  0  0  0  0  0  0  0
    2.5772   -1.8862   -0.9628 H   0  0  0  0  0  0  0  0  0  0  0  0
    4.7618   -1.5323   -2.6566 H   0  0  0  0  0  0  0  0  0  0  0  0
    7.1383   -2.2469   -2.2618 H   0  0  0  0  0  0  0  0  0  0  0  0
    8.3727   -1.3016   -0.4398 H   0  0  0  0  0  0  0  0  0  0  0  0
    7.0725   -0.7066    1.5642 H   0  0  0  0  0  0  0  0  0  0  0  0
    5.4603    1.6778    2.0382 H   0  0  0  0  0  0  0  0  0  0  0  0
    4.8234    3.2859    5.6219 H   0  0  0  0  0  0  0  0  0  0  0  0
    5.0373    3.4254    3.8934 H   0  0  0  0  0  0  0  0  0  0  0  0
    2.2432    3.6275    3.0265 H   0  0  0  0  0  0  0  0  0  0  0  0
    3.8421    2.9154    3.2281 H   0  0  0  0  0  0  0  0  0  0  0  0
    3.0426    1.7201    5.1898 H   0  0  0  0  0  0  0  0  0  0  0  0
    2.0762    1.3252    3.7818 H   0  0  0  0  0  0  0  0  0  0  0  0
    0.4380    2.8654    4.5136 H   0  0  0  0  0  0  0  0  0  0  0  0
    2.2091    3.2600    6.7993 H   0  0  0  0  0  0  0  0  0  0  0  0
    0.6102    3.9721    6.5977 H   0  0  0  0  0  0  0  0  0  0  0  0
    2.3818    5.5563    6.0483 H   0  0  0  0  0  0  0  0  0  0  0  0
    1.4099    5.1758    4.6402 H   0  0  0  0  0  0  0  0  0  0  0  0
    2.3386    1.9567    6.1559 H   0  0  0  0  0  0  0  0  0  0  0  0
    5.0874    1.9908    1.1166 H   0  0  0  0  0  0  0  0  0  0  0  0
    5.4835   -2.6387    0.5505 H   0  0  0  0  0  0  0  0  0  0  0  0
    4.5220   -4.2535   -1.1176 H   0  0  0  0  0  0  0  0  0  0  0  0
    2.4588   -3.7330   -2.2174 H   0  0  0  0  0  0  0  0  0  0  0  0
    2.0227   -1.3476   -2.6421 H   0  0  0  0  0  0  0  0  0  0  0  0
  1  2  2  0  0  0  0
  2  3  1  0  0  0  0
  2 25  1  0  0  0  0
  3  4  1  0  0  0  0
  3 35  1  0  0  0  0
  4  5  1  0  0  0  0
  4  9  2  0  0  0  0
  5  6  2  0  0  0  0
  5 36  1  0  0  0  0
  6  7  1  0  0  0  0
  6 37  1  0  0  0  0
  7  8  2  0  0  0  0
  7 38  1  0  0  0  0
  8  9  1  0  0  0  0
  8 39  1  0  0  0  0
  9 10  1  0  0  0  0
 10 11  2  0  0  0  0
 10 24  1  0  0  0  0
 11 12  1  0  0  0  0
 11 40  1  0  0  0  0
 12 13  1  0  0  0  0
 12 23  1  0  0  0  0
 13 14  1  0  0  0  0
 13 21  2  0  0  0  0
 14 15  1  0  0  0  0
 14 41  1  0  0  0  0
 14 42  1  0  0  0  0
 15 16  1  0  0  0  0
 15 20  1  0  0  0  0
 16 17  1  0  0  0  0
 16 43  1  0  0  0  0
 16 44  1  0  0  0  0
 17 18  1  0  0  0  0
 17 45  1  0  0  0  0
 17 46  1  0  0  0  0
 18 19  1  0  0  0  0
 18 47  1  0  0  0  0
 19 20  1  0  0  0  0
 19 48  1  0  0  0  0
 19 49  1  0  0  0  0
 20 50  1  0  0  0  0
 20 51  1  0  0  0  0
 21 22  1  0  0  0  0
 21 52  1  0  0  0  0
 22 23  1  0  0  0  0
 23 24  2  0  0  0  0
 25 26  1  0  0  0  0
 25 34  2  0  0  0  0
 26 27  2  0  0  0  0
 26 53  1  0  0  0  0
 27 28  1  0  0  0  0
 28 29  1  0  0  0  0
 28 33  2  0  0  0  0
 29 30  2  0  0  0  0
 29 54  1  0  0  0  0
 30 31  1  0  0  0  0
 30 55  1  0  0  0  0
 31 32  2  0  0  0  0
 31 56  1  0  0  0  0
 32 33  1  0  0  0  0
 32 57  1  0  0  0  0
 33 34  1  0  0  0  0
M  END
