
 OpenBabel03132514253D

 51 54  0  0  0  0  0  0  0  0999 V2000
    0.9279   -0.0594   -0.0357 C   0  0  0  0  0  0  0  0  0  0  0  0
    0.4545    1.2775   -0.1079 O   0  0  0  0  0  0  0  0  0  0  0  0
    0.7976    2.2080    0.9084 C   0  0  0  0  0  0  0  0  0  0  0  0
   -0.1034    3.1830    1.3531 C   0  0  0  0  0  0  0  0  0  0  0  0
    0.3643    4.1784    2.2249 C   0  0  0  0  0  0  0  0  0  0  0  0
   -0.1925    5.2354    2.8343 N   0  0  0  0  0  0  0  0  0  0  0  0
    0.7365    5.8339    3.5535 C   0  0  0  0  0  0  0  0  0  0  0  0
    1.8959    5.2014    3.4301 N   0  0  0  0  0  0  0  0  0  0  0  0
    3.1563    5.5892    4.0796 C   0  0  0  0  0  0  0  0  0  0  0  0
    4.3083    5.9182    3.4460 C   0  0  0  0  0  0  0  0  0  0  0  0
    5.1932    6.2347    4.4223 C   0  0  0  0  0  0  0  0  0  0  0  0
    6.5385    6.6492    4.2360 O   0  0  0  0  0  0  0  0  0  0  0  0
    7.0709    6.7638    2.9245 C   0  0  0  0  0  0  0  0  0  0  0  0
    7.0033    5.4132    2.2305 C   0  0  0  0  0  0  0  0  0  0  0  0
    5.9009    4.5290    2.3954 C   0  0  0  0  0  0  0  0  0  0  0  0
    6.0288    3.1873    2.0005 C   0  0  0  0  0  0  0  0  0  0  0  0
    7.0264    2.8221    1.2502 C   0  0  0  0  0  0  0  0  0  0  0  0
    7.9692    3.7678    0.8258 C   0  0  0  0  0  0  0  0  0  0  0  0
    8.0212    5.0352    1.4554 C   0  0  0  0  0  0  0  0  0  0  0  0
    9.4460    6.1248    1.2124 S   0  0  0  0  0  0  0  0  0  0  0  0
   10.9459    5.2955    1.7943 C   0  0  0  0  0  0  0  0  0  0  0  0
    9.5891    6.4533   -0.2755 O   0  0  0  0  0  0  0  0  0  0  0  0
    9.2392    7.4189    2.0030 O   0  0  0  0  0  0  0  0  0  0  0  0
    4.5808    6.0883    5.5655 C   0  0  0  0  0  0  0  0  0  0  0  0
    5.2023    6.3380    6.9300 C   0  0  0  0  0  0  0  0  0  0  0  0
    5.7179    6.5451    8.0619 N   0  0  0  0  0  0  0  0  0  0  0  0
    3.3716    5.7007    5.3620 S   0  0  0  0  0  0  0  0  0  0  0  0
    1.7301    4.1593    2.6223 C   0  0  0  0  0  0  0  0  0  0  0  0
    2.5538    3.1814    2.1535 C   0  0  0  0  0  0  0  0  0  0  0  0
    2.0969    2.2351    1.3197 C   0  0  0  0  0  0  0  0  0  0  0  0
    2.9906    1.2350    0.8531 O   0  0  0  0  0  0  0  0  0  0  0  0
    2.5267    0.2245   -0.0301 C   0  0  0  0  0  0  0  0  0  0  0  0
    0.5712   -0.6102   -0.8809 H   0  0  0  0  0  0  0  0  0  0  0  0
    0.5712   -0.5159    0.8639 H   0  0  0  0  0  0  0  0  0  0  0  0
    1.9979   -0.0594   -0.0357 H   0  0  0  0  0  0  0  0  0  0  0  0
   -1.1251    3.1696    1.0355 H   0  0  0  0  0  0  0  0  0  0  0  0
    0.5777    6.7064    4.1521 H   0  0  0  0  0  0  0  0  0  0  0  0
    4.4833    5.9263    2.3904 H   0  0  0  0  0  0  0  0  0  0  0  0
    6.5008    7.4791    2.3694 H   0  0  0  0  0  0  0  0  0  0  0  0
    8.0899    7.0856    2.9802 H   0  0  0  0  0  0  0  0  0  0  0  0
    4.9831    4.8829    2.8164 H   0  0  0  0  0  0  0  0  0  0  0  0
    5.3053    2.4654    2.3171 H   0  0  0  0  0  0  0  0  0  0  0  0
    7.1273    1.7981    0.9567 H   0  0  0  0  0  0  0  0  0  0  0  0
    8.6458    3.5338    0.0306 H   0  0  0  0  0  0  0  0  0  0  0  0
   11.0905    4.3908    1.2416 H   0  0  0  0  0  0  0  0  0  0  0  0
   11.7882    5.9396    1.6506 H   0  0  0  0  0  0  0  0  0  0  0  0
   10.8458    5.0658    2.8345 H   0  0  0  0  0  0  0  0  0  0  0  0
    3.5804    3.1676    2.4548 H   0  0  0  0  0  0  0  0  0  0  0  0
    1.7426   -0.3296    0.4422 H   0  0  0  0  0  0  0  0  0  0  0  0
    2.1546    0.6767   -0.9256 H   0  0  0  0  0  0  0  0  0  0  0  0
    3.3336   -0.4352   -0.2725 H   0  0  0  0  0  0  0  0  0  0  0  0
  1  2  1  0  0  0  0
  1 33  1  0  0  0  0
  1 34  1  0  0  0  0
  1 35  1  0  0  0  0
  2  3  1  0  0  0  0
  3  4  1  0  0  0  0
  3 30  2  0  0  0  0
  4  5  2  0  0  0  0
  4 36  1  0  0  0  0
  5  6  1  0  0  0  0
  5 28  1  0  0  0  0
  6  7  2  0  0  0  0
  7  8  1  0  0  0  0
  7 37  1  0  0  0  0
  8  9  1  0  0  0  0
  8 28  1  0  0  0  0
  9 10  2  0  0  0  0
  9 27  1  0  0  0  0
 10 11  1  0  0  0  0
 10 38  1  0  0  0  0
 11 12  1  0  0  0  0
 11 24  2  0  0  0  0
 12 13  1  0  0  0  0
 13 14  1  0  0  0  0
 13 39  1  0  0  0  0
 13 40  1  0  0  0  0
 14 15  1  0  0  0  0
 14 19  2  0  0  0  0
 15 16  2  0  0  0  0
 15 41  1  0  0  0  0
 16 17  1  0  0  0  0
 16 42  1  0  0  0  0
 17 18  2  0  0  0  0
 17 43  1  0  0  0  0
 18 19  1  0  0  0  0
 18 44  1  0  0  0  0
 19 20  1  0  0  0  0
 20 21  1  0  0  0  0
 20 22  2  0  0  0  0
 20 23  2  0  0  0  0
 21 45  1  0  0  0  0
 21 46  1  0  0  0  0
 21 47  1  0  0  0  0
 24 25  1  0  0  0  0
 24 27  1  0  0  0  0
 25 26  3  0  0  0  0
 28 29  2  0  0  0  0
 29 30  1  0  0  0  0
 29 48  1  0  0  0  0
 30 31  1  0  0  0  0
 31 32  1  0  0  0  0
 32 49  1  0  0  0  0
 32 50  1  0  0  0  0
 32 51  1  0  0  0  0
M  END
