
 OpenBabel03132514253D

 49 52  0  0  0  0  0  0  0  0999 V2000
    0.9988   -0.1000   -0.0018 C   0  0  0  0  0  0  0  0  0  0  0  0
    0.4922    1.3319    0.0574 C   0  0  0  0  0  0  0  0  0  0  0  0
   -0.0626    1.9668   -1.1260 C   0  0  0  0  0  0  0  0  0  0  0  0
    0.6399    3.2778   -1.3673 C   0  0  0  0  0  0  0  0  0  0  0  0
   -0.0649    4.5770   -1.0684 C   0  0  0  0  0  0  0  0  0  0  0  0
   -0.9022    5.1504   -1.8335 O   0  0  0  0  0  0  0  0  0  0  0  0
    0.3768    5.0899    0.2772 C   0  0  0  0  0  0  0  0  0  0  0  0
   -0.5042    5.5828    1.1123 C   0  0  0  0  0  0  0  0  0  0  0  0
   -0.0626    6.0962    2.4587 C   0  0  0  0  0  0  0  0  0  0  0  0
   -0.7671    5.3041    3.5628 C   0  0  0  0  0  0  0  0  0  0  0  0
    0.0457    4.0494    3.8868 C   0  0  0  0  0  0  0  0  0  0  0  0
   -0.3734    0.7288    0.8870 C   0  0  0  0  0  0  0  0  0  0  0  0
    0.1281    0.0506    2.1355 C   0  0  0  0  0  0  0  0  0  0  0  0
   -0.7532    0.4487    3.3213 C   0  0  0  0  0  0  0  0  0  0  0  0
   -0.0691    1.5640    4.1097 C   0  0  0  0  0  0  0  0  0  0  0  0
    0.0403    1.1587    5.5706 C   0  0  0  0  0  0  0  0  0  0  0  0
    1.3218    1.8040    3.5456 C   0  0  0  0  0  0  0  0  0  0  0  0
    1.2201    2.1822    2.1806 O   0  0  0  0  0  0  0  0  0  0  0  0
    2.0020    2.9143    4.3297 C   0  0  0  0  0  0  0  0  0  0  0  0
   -1.7683    2.9985    5.2306 C   0  0  0  0  0  0  0  0  0  0  0  0
   -0.8941    2.8474    3.9964 C   0  0  0  0  0  0  0  0  0  0  0  0
    0.6422   -0.5679   -0.8955 H   0  0  0  0  0  0  0  0  0  0  0  0
    0.6422   -0.6400    0.8503 H   0  0  0  0  0  0  0  0  0  0  0  0
    2.0688   -0.1000   -0.0018 H   0  0  0  0  0  0  0  0  0  0  0  0
   -1.1078    2.1433   -0.9799 H   0  0  0  0  0  0  0  0  0  0  0  0
    0.0755    1.3269   -1.9724 H   0  0  0  0  0  0  0  0  0  0  0  0
    0.7586    3.3012   -2.4304 H   0  0  0  0  0  0  0  0  0  0  0  0
    1.5297    3.2653   -0.7731 H   0  0  0  0  0  0  0  0  0  0  0  0
    1.4105    5.0516    0.5511 H   0  0  0  0  0  0  0  0  0  0  0  0
   -0.3156    7.1322    2.5460 H   0  0  0  0  0  0  0  0  0  0  0  0
    0.9965    5.9784    2.5555 H   0  0  0  0  0  0  0  0  0  0  0  0
   -1.7442    5.0209    3.2311 H   0  0  0  0  0  0  0  0  0  0  0  0
   -0.8508    5.9114    4.4398 H   0  0  0  0  0  0  0  0  0  0  0  0
    0.8550    4.5095    4.4143 H   0  0  0  0  0  0  0  0  0  0  0  0
   -1.1038    0.2256    0.2884 H   0  0  0  0  0  0  0  0  0  0  0  0
    1.1373    0.3519    2.3242 H   0  0  0  0  0  0  0  0  0  0  0  0
    0.0913   -1.0107    2.0042 H   0  0  0  0  0  0  0  0  0  0  0  0
   -1.7005    0.7936    2.9627 H   0  0  0  0  0  0  0  0  0  0  0  0
   -0.9008   -0.3993    3.9570 H   0  0  0  0  0  0  0  0  0  0  0  0
    0.6172    0.2610    5.6495 H   0  0  0  0  0  0  0  0  0  0  0  0
    0.5194    1.9402    6.1226 H   0  0  0  0  0  0  0  0  0  0  0  0
   -0.9386    0.9897    5.9682 H   0  0  0  0  0  0  0  0  0  0  0  0
    1.8986    0.9063    3.6249 H   0  0  0  0  0  0  0  0  0  0  0  0
    0.7726    1.4517    1.6648 H   0  0  0  0  0  0  0  0  0  0  0  0
    2.9811    3.0832    3.9326 H   0  0  0  0  0  0  0  0  0  0  0  0
    1.4251    3.8120    4.2504 H   0  0  0  0  0  0  0  0  0  0  0  0
   -2.3452    3.8962    5.1514 H   0  0  0  0  0  0  0  0  0  0  0  0
   -2.4256    2.1577    5.3072 H   0  0  0  0  0  0  0  0  0  0  0  0
   -1.5130    2.7978    3.1249 H   0  0  0  0  0  0  0  0  0  0  0  0
  1  2  1  0  0  0  0
  1 22  1  0  0  0  0
  1 23  1  0  0  0  0
  1 24  1  0  0  0  0
  2  3  1  0  0  0  0
  2  8  1  0  0  0  0
  2 12  1  0  0  0  0
  3  4  1  0  0  0  0
  3 25  1  0  0  0  0
  3 26  1  0  0  0  0
  4  5  1  0  0  0  0
  4 27  1  0  0  0  0
  4 28  1  0  0  0  0
  5  6  2  0  0  0  0
  5  7  1  0  0  0  0
  7  8  2  0  0  0  0
  7 29  1  0  0  0  0
  8  9  1  0  0  0  0
  9 10  1  0  0  0  0
  9 30  1  0  0  0  0
  9 31  1  0  0  0  0
 10 11  1  0  0  0  0
 10 32  1  0  0  0  0
 10 33  1  0  0  0  0
 11 12  1  0  0  0  0
 11 21  1  0  0  0  0
 11 34  1  0  0  0  0
 12 13  1  0  0  0  0
 12 35  1  0  0  0  0
 13 14  1  0  0  0  0
 13 36  1  0  0  0  0
 13 37  1  0  0  0  0
 14 15  1  0  0  0  0
 14 38  1  0  0  0  0
 14 39  1  0  0  0  0
 15 16  1  0  0  0  0
 15 17  1  0  0  0  0
 15 21  1  0  0  0  0
 16 40  1  0  0  0  0
 16 41  1  0  0  0  0
 16 42  1  0  0  0  0
 17 18  1  0  0  0  0
 17 19  1  0  0  0  0
 17 43  1  0  0  0  0
 18 44  1  0  0  0  0
 19 20  1  0  0  0  0
 19 45  1  0  0  0  0
 19 46  1  0  0  0  0
 20 21  1  0  0  0  0
 20 47  1  0  0  0  0
 20 48  1  0  0  0  0
 21 49  1  0  0  0  0
M  END
