REMARK  Name = 
REMARK  15 active torsions:
REMARK  status: ('A' for Active; 'I' for Inactive)
REMARK    1  A    between atoms: C_2  and  C_3
REMARK    2  A    between atoms: C_2  and  O_12
REMARK    3  A    between atoms: C_4  and  C_5
REMARK    4  A    between atoms: C_8  and  O_9
REMARK    5  A    between atoms: O_12  and  C_13
REMARK    6  A    between atoms: C_13  and  C_14
REMARK    7  A    between atoms: C_16  and  O_17
REMARK    8  A    between atoms: O_17  and  C_18
REMARK    9  A    between atoms: C_19  and  C_20
REMARK   10  A    between atoms: C_23  and  O_24
REMARK   11  A    between atoms: C_30  and  O_31
REMARK   12  A    between atoms: C_33  and  O_34
REMARK   13  A    between atoms: C_38  and  O_39
REMARK   14  A    between atoms: C_40  and  O_41
REMARK   15  A    between atoms: C_42  and  O_43
REMARK                            x       y       z     vdW  Elec       q    Type
REMARK                         _______ _______ _______ _____ _____    ______ ____
ROOT
ATOM      1  C   UNL     1       4.905   0.894   1.108  0.00  0.00    +0.000 C 
ATOM      2  O   UNL     1       4.578  -0.577   1.378  0.00  0.00    +0.000 OA
ATOM      3  C   UNL     1       5.239  -1.397   0.412  0.00  0.00    +0.000 C 
ATOM      4  C   UNL     1       6.664  -1.293   0.437  0.00  0.00    +0.000 C 
ATOM      5  C   UNL     1       7.075   0.149   0.129  0.00  0.00    +0.000 C 
ATOM      6  C   UNL     1       6.424   1.087   1.150  0.00  0.00    +0.000 C 
ENDROOT
BRANCH   4   7
ATOM      7  O   UNL     1       7.220  -2.163  -0.538  0.00  0.00    +0.000 OA
ATOM      8  H   UNL     1       6.883  -1.906  -1.444  0.00  0.00    +0.000 HD
ENDBRANCH   4   7
BRANCH   5   9
ATOM      9  O   UNL     1       6.649   0.498  -1.180  0.00  0.00    +0.000 OA
ATOM     10  H   UNL     1       5.654   0.416  -1.239  0.00  0.00    +0.000 HD
ENDBRANCH   5   9
BRANCH   6  11
ATOM     11  O   UNL     1       6.745   2.434   0.837  0.00  0.00    +0.000 OA
ATOM     12  H   UNL     1       6.407   2.653  -0.078  0.00  0.00    +0.000 HD
ENDBRANCH   6  11
BRANCH   1  13
ATOM     13  C   UNL     1       4.398   1.290  -0.269  0.00  0.00    +0.000 C 
BRANCH  13  14
ATOM     14  O   UNL     1       2.978   1.290  -0.269  0.00  0.00    +0.000 OA
BRANCH  14  16
ATOM     15  O   UNL     1       0.997   0.096   0.027  0.00  0.00    +0.000 OA
ATOM     16  C   UNL     1       2.268   0.096   0.027  0.00  0.00    +0.000 C 
BRANCH  16  17
ATOM     17  C   UNL     1       3.028  -1.181   0.345  0.00  0.00    +0.000 C 
ATOM     18  C   UNL     1       4.388  -1.181   0.345  0.00  0.00    +0.000 C 
BRANCH  18  19
ATOM     19  C   UNL     1       5.148  -2.459   0.662  0.00  0.00    +0.000 A 
ATOM     20  C   UNL     1       4.731  -3.630   0.069  0.00  0.00    +0.000 A 
ATOM     21  C   UNL     1       5.384  -4.840   0.325  0.00  0.00    +0.000 A 
ATOM     22  C   UNL     1       6.493  -4.813   1.195  0.00  0.00    +0.000 A 
ATOM     23  C   UNL     1       6.881  -3.643   1.804  0.00  0.00    +0.000 A 
ATOM     24  C   UNL     1       6.214  -2.465   1.529  0.00  0.00    +0.000 A 
BRANCH  22  25
ATOM     25  O   UNL     1       7.199  -5.930   1.482  0.00  0.00    +0.000 OA
ATOM     26  H   UNL     1       6.949  -6.801   1.060  0.00  0.00    +0.000 HD
ENDBRANCH  22  25
ENDBRANCH  18  19
ENDBRANCH  16  17
ENDBRANCH  14  16
ENDBRANCH  13  14
ENDBRANCH   1  13
BRANCH   3  27
ATOM     27  O   UNL     1       4.818  -0.945  -0.866  0.00  0.00    +0.000 OA
BRANCH  27  28
ATOM     28  C   UNL     1       5.091   0.388  -1.274  0.00  0.00    +0.000 A 
ATOM     29  C   UNL     1       4.664   0.847  -2.571  0.00  0.00    +0.000 A 
ATOM     30  O   UNL     1       4.923   2.109  -2.957  0.00  0.00    +0.000 OA
ATOM     31  C   UNL     1       4.502   2.561  -4.235  0.00  0.00    +0.000 A 
ATOM     32  C   UNL     1       3.204   2.249  -4.654  0.00  0.00    +0.000 A 
ATOM     33  C   UNL     1       2.754   2.818  -5.863  0.00  0.00    +0.000 A 
ATOM     34  C   UNL     1       3.583   3.611  -6.620  0.00  0.00    +0.000 A 
ATOM     35  C   UNL     1       4.859   3.900  -6.176  0.00  0.00    +0.000 A 
ATOM     36  C   UNL     1       5.313   3.382  -4.988  0.00  0.00    +0.000 A 
ATOM     37  C   UNL     1       5.796   1.281  -0.390  0.00  0.00    +0.000 A 
ATOM     38  O   UNL     1       6.173   0.876   0.754  0.00  0.00    +0.000 OA
BRANCH  29  39
ATOM     39  C   UNL     1       3.920  -0.096  -3.503  0.00  0.00    +0.000 A 
ATOM     40  C   UNL     1       2.892  -0.911  -3.084  0.00  0.00    +0.000 A 
ATOM     41  C   UNL     1       2.137  -1.649  -4.002  0.00  0.00    +0.000 A 
ATOM     42  C   UNL     1       2.457  -1.513  -5.369  0.00  0.00    +0.000 A 
ATOM     43  C   UNL     1       3.505  -0.720  -5.772  0.00  0.00    +0.000 A 
ATOM     44  C   UNL     1       4.230  -0.005  -4.838  0.00  0.00    +0.000 A 
BRANCH  42  45
ATOM     45  O   UNL     1       1.767  -2.170  -6.329  0.00  0.00    +0.000 OA
ATOM     46  H   UNL     1       0.997  -2.757  -6.078  0.00  0.00    +0.000 HD
ENDBRANCH  42  45
ENDBRANCH  29  39
BRANCH  33  47
ATOM     47  O   UNL     1       1.507   2.590  -6.334  0.00  0.00    +0.000 OA
ATOM     48  H   UNL     1       0.872   2.019  -5.814  0.00  0.00    +0.000 HD
ENDBRANCH  33  47
BRANCH  35  49
ATOM     49  O   UNL     1       5.705   4.735  -6.953  0.00  0.00    +0.000 OA
ATOM     50  H   UNL     1       6.629   4.946  -6.634  0.00  0.00    +0.000 HD
ENDBRANCH  35  49
ENDBRANCH  27  28
ENDBRANCH   3  27
TORSDOF 15
