
 OpenBabel03132514253D

 69 73  0  0  0  0  0  0  0  0999 V2000
    0.9971    0.0962    0.0272 O   0  0  0  0  0  0  0  0  0  0  0  0
    2.2680    0.0962    0.0272 C   0  0  0  0  0  0  0  0  0  0  0  0
    3.0280   -1.1813    0.3447 C   0  0  0  0  0  0  0  0  0  0  0  0
    4.3884   -1.1813    0.3447 C   0  0  0  0  0  0  0  0  0  0  0  0
    5.1484   -2.4588    0.6622 C   0  0  0  0  0  0  0  0  0  0  0  0
    4.7310   -3.6299    0.0689 C   0  0  0  0  0  0  0  0  0  0  0  0
    5.3838   -4.8403    0.3245 C   0  0  0  0  0  0  0  0  0  0  0  0
    6.4928   -4.8129    1.1952 C   0  0  0  0  0  0  0  0  0  0  0  0
    7.1991   -5.9300    1.4817 O   0  0  0  0  0  0  0  0  0  0  0  0
    6.8813   -3.6434    1.8041 C   0  0  0  0  0  0  0  0  0  0  0  0
    6.2140   -2.4654    1.5293 C   0  0  0  0  0  0  0  0  0  0  0  0
    2.9780    1.2896   -0.2694 O   0  0  0  0  0  0  0  0  0  0  0  0
    4.3980    1.2896   -0.2694 C   0  0  0  0  0  0  0  0  0  0  0  0
    4.9047    0.8936    1.1078 C   0  0  0  0  0  0  0  0  0  0  0  0
    4.5779   -0.5770    1.3780 O   0  0  0  0  0  0  0  0  0  0  0  0
    5.2395   -1.3966    0.4120 C   0  0  0  0  0  0  0  0  0  0  0  0
    4.8181   -0.9445   -0.8664 O   0  0  0  0  0  0  0  0  0  0  0  0
    5.0914    0.3881   -1.2738 C   0  0  0  0  0  0  0  0  0  0  0  0
    4.6640    0.8466   -2.5705 C   0  0  0  0  0  0  0  0  0  0  0  0
    3.9204   -0.0958   -3.5028 C   0  0  0  0  0  0  0  0  0  0  0  0
    2.8915   -0.9107   -3.0843 C   0  0  0  0  0  0  0  0  0  0  0  0
    2.1371   -1.6487   -4.0023 C   0  0  0  0  0  0  0  0  0  0  0  0
    2.4571   -1.5132   -5.3691 C   0  0  0  0  0  0  0  0  0  0  0  0
    1.7666   -2.1696   -6.3289 O   0  0  0  0  0  0  0  0  0  0  0  0
    3.5049   -0.7200   -5.7717 C   0  0  0  0  0  0  0  0  0  0  0  0
    4.2297   -0.0046   -4.8383 C   0  0  0  0  0  0  0  0  0  0  0  0
    4.9230    2.1092   -2.9565 O   0  0  0  0  0  0  0  0  0  0  0  0
    4.5016    2.5614   -4.2349 C   0  0  0  0  0  0  0  0  0  0  0  0
    3.2043    2.2486   -4.6541 C   0  0  0  0  0  0  0  0  0  0  0  0
    2.7537    2.8177   -5.8632 C   0  0  0  0  0  0  0  0  0  0  0  0
    1.5066    2.5903   -6.3342 O   0  0  0  0  0  0  0  0  0  0  0  0
    3.5827    3.6108   -6.6201 C   0  0  0  0  0  0  0  0  0  0  0  0
    4.8588    3.8996   -6.1765 C   0  0  0  0  0  0  0  0  0  0  0  0
    5.7048    4.7353   -6.9526 O   0  0  0  0  0  0  0  0  0  0  0  0
    5.3128    3.3818   -4.9877 C   0  0  0  0  0  0  0  0  0  0  0  0
    5.7960    1.2810   -0.3904 C   0  0  0  0  0  0  0  0  0  0  0  0
    6.1731    0.8763    0.7538 O   0  0  0  0  0  0  0  0  0  0  0  0
    6.6642   -1.2927    0.4370 C   0  0  0  0  0  0  0  0  0  0  0  0
    7.2198   -2.1625   -0.5382 O   0  0  0  0  0  0  0  0  0  0  0  0
    7.0754    0.1490    0.1288 C   0  0  0  0  0  0  0  0  0  0  0  0
    6.6490    0.4980   -1.1799 O   0  0  0  0  0  0  0  0  0  0  0  0
    6.4241    1.0865    1.1503 C   0  0  0  0  0  0  0  0  0  0  0  0
    6.7451    2.4339    0.8373 O   0  0  0  0  0  0  0  0  0  0  0  0
    2.4930   -2.0806    0.5682 H   0  0  0  0  0  0  0  0  0  0  0  0
    4.9234   -0.2820    0.1212 H   0  0  0  0  0  0  0  0  0  0  0  0
    3.8943   -3.6134   -0.5978 H   0  0  0  0  0  0  0  0  0  0  0  0
    5.0538   -5.7539   -0.1244 H   0  0  0  0  0  0  0  0  0  0  0  0
    6.9491   -6.8015    1.0598 H   0  0  0  0  0  0  0  0  0  0  0  0
    7.7013   -3.6455    2.4914 H   0  0  0  0  0  0  0  0  0  0  0  0
    6.5284   -1.5543    1.9939 H   0  0  0  0  0  0  0  0  0  0  0  0
    4.7547    0.5894   -0.9956 H   0  0  0  0  0  0  0  0  0  0  0  0
    4.7547    2.2687   -0.5128 H   0  0  0  0  0  0  0  0  0  0  0  0
    4.4335    1.5020    1.8513 H   0  0  0  0  0  0  0  0  0  0  0  0
    4.9736   -2.4163    0.5979 H   0  0  0  0  0  0  0  0  0  0  0  0
    2.6660   -0.9801   -2.0407 H   0  0  0  0  0  0  0  0  0  0  0  0
    1.3460   -2.2927   -3.6793 H   0  0  0  0  0  0  0  0  0  0  0  0
    0.9971   -2.7570   -6.0781 H   0  0  0  0  0  0  0  0  0  0  0  0
    3.7594   -0.6566   -6.8091 H   0  0  0  0  0  0  0  0  0  0  0  0
    5.0354    0.6233   -5.1568 H   0  0  0  0  0  0  0  0  0  0  0  0
    2.5765    1.6011   -4.0783 H   0  0  0  0  0  0  0  0  0  0  0  0
    0.8721    2.0188   -5.8139 H   0  0  0  0  0  0  0  0  0  0  0  0
    3.2395    4.0049   -7.5538 H   0  0  0  0  0  0  0  0  0  0  0  0
    6.6289    4.9457   -6.6336 H   0  0  0  0  0  0  0  0  0  0  0  0
    7.0250   -1.5671    1.4063 H   0  0  0  0  0  0  0  0  0  0  0  0
    6.8828   -1.9062   -1.4442 H   0  0  0  0  0  0  0  0  0  0  0  0
    8.1400    0.2383    0.1887 H   0  0  0  0  0  0  0  0  0  0  0  0
    5.6542    0.4156   -1.2394 H   0  0  0  0  0  0  0  0  0  0  0  0
    6.7874    0.8572    2.1303 H   0  0  0  0  0  0  0  0  0  0  0  0
    6.4074    2.6530   -0.0781 H   0  0  0  0  0  0  0  0  0  0  0  0
  1  2  2  0  0  0  0
  2  3  1  0  0  0  0
  2 12  1  0  0  0  0
  3  4  2  0  0  0  0
  3 44  1  0  0  0  0
  4  5  1  0  0  0  0
  4 45  1  0  0  0  0
  5  6  1  0  0  0  0
  5 11  2  0  0  0  0
  6  7  2  0  0  0  0
  6 46  1  0  0  0  0
  7  8  1  0  0  0  0
  7 47  1  0  0  0  0
  8  9  1  0  0  0  0
  8 10  2  0  0  0  0
  9 48  1  0  0  0  0
 10 11  1  0  0  0  0
 10 49  1  0  0  0  0
 11 50  1  0  0  0  0
 12 13  1  0  0  0  0
 13 14  1  0  0  0  0
 13 51  1  0  0  0  0
 13 52  1  0  0  0  0
 14 15  1  0  0  0  0
 14 42  1  0  0  0  0
 14 53  1  0  0  0  0
 15 16  1  0  0  0  0
 16 17  1  0  0  0  0
 16 38  1  0  0  0  0
 16 54  1  0  0  0  0
 17 18  1  0  0  0  0
 18 19  2  0  0  0  0
 18 36  1  0  0  0  0
 19 20  1  0  0  0  0
 19 27  1  0  0  0  0
 20 21  1  0  0  0  0
 20 26  2  0  0  0  0
 21 22  2  0  0  0  0
 21 55  1  0  0  0  0
 22 23  1  0  0  0  0
 22 56  1  0  0  0  0
 23 24  1  0  0  0  0
 23 25  2  0  0  0  0
 24 57  1  0  0  0  0
 25 26  1  0  0  0  0
 25 58  1  0  0  0  0
 26 59  1  0  0  0  0
 27 28  1  0  0  0  0
 28 29  1  0  0  0  0
 28 35  2  0  0  0  0
 29 30  2  0  0  0  0
 29 60  1  0  0  0  0
 30 31  1  0  0  0  0
 30 32  1  0  0  0  0
 31 61  1  0  0  0  0
 32 33  2  0  0  0  0
 32 62  1  0  0  0  0
 33 34  1  0  0  0  0
 33 35  1  0  0  0  0
 34 63  1  0  0  0  0
 35 36  1  0  0  0  0
 36 37  2  0  0  0  0
 38 39  1  0  0  0  0
 38 40  1  0  0  0  0
 38 64  1  0  0  0  0
 39 65  1  0  0  0  0
 40 41  1  0  0  0  0
 40 42  1  0  0  0  0
 40 66  1  0  0  0  0
 41 67  1  0  0  0  0
 42 43  1  0  0  0  0
 42 68  1  0  0  0  0
 43 69  1  0  0  0  0
M  END
