REMARK  Name = 
REMARK  17 active torsions:
REMARK  status: ('A' for Active; 'I' for Inactive)
REMARK    1  A    between atoms: C_1  and  C_2
REMARK    2  A    between atoms: C_17  and  O_18
REMARK    3  A    between atoms: O_18  and  C_19
REMARK    4  A    between atoms: C_21  and  C_22
REMARK    5  A    between atoms: C_22  and  O_23
REMARK    6  A    between atoms: C_24  and  O_25
REMARK    7  A    between atoms: C_26  and  O_27
REMARK    8  A    between atoms: C_28  and  O_29
REMARK    9  A    between atoms: O_29  and  C_30
REMARK   10  A    between atoms: C_32  and  C_33
REMARK   11  A    between atoms: C_33  and  O_34
REMARK   12  A    between atoms: C_35  and  O_36
REMARK   13  A    between atoms: C_37  and  O_38
REMARK   14  A    between atoms: C_39  and  O_40
REMARK   15  A    between atoms: C_43  and  C_44
REMARK   16  A    between atoms: C_48  and  C_49
REMARK   17  A    between atoms: C_51  and  C_52
REMARK                            x       y       z     vdW  Elec       q    Type
REMARK                         _______ _______ _______ _____ _____    ______ ____
ROOT
ATOM      1  O   UNL     1       5.322   0.836   1.268  0.00  0.00    +0.000 OA
ENDROOT
BRANCH   1  18
ATOM      2  C   UNL     1       1.094   0.025   0.025  0.00  0.00    +0.000 C 
ATOM      3  C   UNL     1       0.587  -1.265  -0.600  0.00  0.00    +0.000 C 
ATOM      4  C   UNL     1       1.378  -2.370  -1.303  0.00  0.00    +0.000 C 
ATOM      5  C   UNL     1       2.254  -2.998  -0.365  0.00  0.00    +0.000 C 
ATOM      6  C   UNL     1       1.584  -3.622   0.732  0.00  0.00    +0.000 C 
ATOM      7  O   UNL     1       0.802  -2.567   1.517  0.00  0.00    +0.000 OA
ATOM      8  C   UNL     1      -0.186  -1.870   0.577  0.00  0.00    +0.000 C 
ATOM      9  O   UNL     1       0.688  -4.608   0.240  0.00  0.00    +0.000 OA
ATOM     10  C   UNL     1       0.022  -5.228   1.331  0.00  0.00    +0.000 C 
ATOM     11  C   UNL     1       1.047  -5.903   2.245  0.00  0.00    +0.000 C 
ATOM     12  C   UNL     1       2.295  -6.262   1.436  0.00  0.00    +0.000 C 
ATOM     13  C   UNL     1       3.492  -5.471   1.966  0.00  0.00    +0.000 C 
ATOM     14  C   UNL     1       4.417  -5.105   0.804  0.00  0.00    +0.000 C 
ATOM     15  C   UNL     1       5.244  -3.903   1.181  0.00  0.00    +0.000 C 
ATOM     16  C   UNL     1       4.771  -2.666   0.956  0.00  0.00    +0.000 C 
ATOM     17  C   UNL     1       5.617  -1.555   1.352  0.00  0.00    +0.000 C 
ATOM     18  C   UNL     1       4.740  -0.366   1.750  0.00  0.00    +0.000 C 
ATOM     19  C   UNL     1       3.418  -0.529   1.175  0.00  0.00    +0.000 C 
ATOM     20  C   UNL     1       2.687   0.583   0.998  0.00  0.00    +0.000 C 
ATOM     21  C   UNL     1       1.310   0.492   0.392  0.00  0.00    +0.000 C 
ATOM     22  C   UNL     1       0.473   1.207  -0.656  0.00  0.00    +0.000 C 
ATOM     23  C   UNL     1       0.296   0.135   1.482  0.00  0.00    +0.000 C 
ATOM     24  C   UNL     1      -0.840  -0.688   0.870  0.00  0.00    +0.000 C 
ATOM     25  C   UNL     1      -1.290  -1.758   1.867  0.00  0.00    +0.000 C 
ATOM     26  C   UNL     1      -1.313  -3.122   1.175  0.00  0.00    +0.000 C 
ATOM     27  C   UNL     1      -2.345  -2.700   0.141  0.00  0.00    +0.000 C 
ATOM     28  C   UNL     1      -0.766  -4.187   2.128  0.00  0.00    +0.000 C 
ATOM     29  C   UNL     1       2.607  -4.278   1.644  0.00  0.00    +0.000 C 
ATOM     30  C   UNL     1       3.385  -5.326   0.864  0.00  0.00    +0.000 C 
ENDBRANCH   1  18
BRANCH   1  31
ATOM     31  C   UNL     1       5.426   0.778  -0.147  0.00  0.00    +0.000 C 
ATOM     32  O   UNL     1       6.298  -0.414  -0.548  0.00  0.00    +0.000 OA
ATOM     33  C   UNL     1       5.678  -1.625  -0.112  0.00  0.00    +0.000 C 
ATOM     34  C   UNL     1       4.391  -1.861  -0.685  0.00  0.00    +0.000 C 
ATOM     35  C   UNL     1       3.441  -0.728  -0.290  0.00  0.00    +0.000 C 
ATOM     36  C   UNL     1       4.031   0.607  -0.757  0.00  0.00    +0.000 C 
BRANCH  34  37
ATOM     37  O   UNL     1       3.878  -3.096  -0.208  0.00  0.00    +0.000 OA
ATOM     38  H   UNL     1       3.798  -3.061   0.788  0.00  0.00    +0.000 HD
ENDBRANCH  34  37
BRANCH  35  39
ATOM     39  O   UNL     1       3.279  -0.711   1.121  0.00  0.00    +0.000 OA
ATOM     40  H   UNL     1       4.167  -0.568   1.557  0.00  0.00    +0.000 HD
ENDBRANCH  35  39
BRANCH  33  41
ATOM     41  C   UNL     1       5.472  -1.497   1.389  0.00  0.00    +0.000 C 
BRANCH  41  42
ATOM     42  O   UNL     1       4.882  -2.688   1.889  0.00  0.00    +0.000 OA
ATOM     43  H   UNL     1       3.999  -2.835   1.443  0.00  0.00    +0.000 HD
ENDBRANCH  41  42
ENDBRANCH  33  41
BRANCH  36  44
ATOM     44  O   UNL     1       3.191   1.674  -0.339  0.00  0.00    +0.000 OA
BRANCH  44  45
ATOM     45  C   UNL     1       3.091   1.671   1.077  0.00  0.00    +0.000 C 
ATOM     46  O   UNL     1       2.503   0.338   1.546  0.00  0.00    +0.000 OA
ATOM     47  C   UNL     1       3.382  -0.727   1.174  0.00  0.00    +0.000 C 
ATOM     48  C   UNL     1       4.684  -0.638   1.755  0.00  0.00    +0.000 C 
ATOM     49  C   UNL     1       5.360   0.656   1.296  0.00  0.00    +0.000 C 
ATOM     50  C   UNL     1       4.484   1.849   1.691  0.00  0.00    +0.000 C 
BRANCH  48  51
ATOM     51  O   UNL     1       5.463  -1.751   1.345  0.00  0.00    +0.000 OA
ATOM     52  H   UNL     1       5.543  -1.753   0.348  0.00  0.00    +0.000 HD
ENDBRANCH  48  51
BRANCH  49  53
ATOM     53  O   UNL     1       5.527   0.633  -0.114  0.00  0.00    +0.000 OA
ATOM     54  H   UNL     1       4.633   0.550  -0.555  0.00  0.00    +0.000 HD
ENDBRANCH  49  53
BRANCH  50  55
ATOM     55  O   UNL     1       5.068   3.052   1.213  0.00  0.00    +0.000 OA
ATOM     56  H   UNL     1       5.146   3.012   0.217  0.00  0.00    +0.000 HD
ENDBRANCH  50  55
BRANCH  47  57
ATOM     57  C   UNL     1       3.567  -0.636  -0.332  0.00  0.00    +0.000 C 
BRANCH  57  58
ATOM     58  O   UNL     1       4.413  -1.690  -0.769  0.00  0.00    +0.000 OA
ATOM     59  H   UNL     1       5.302  -1.612  -0.318  0.00  0.00    +0.000 HD
ENDBRANCH  57  58
ENDBRANCH  47  57
ENDBRANCH  44  45
ENDBRANCH  36  44
ENDBRANCH   1  31
TORSDOF 13
