REMARK  Name = 
REMARK  3 active torsions:
REMARK  status: ('A' for Active; 'I' for Inactive)
REMARK    1  A    between atoms: C_6  and  C_7
REMARK    2  A    between atoms: C_13  and  C_14
REMARK    3  A    between atoms: C_13  and  C_15
REMARK                            x       y       z     vdW  Elec       q    Type
REMARK                         _______ _______ _______ _____ _____    ______ ____
ROOT
ATOM      1  C   UNL     1       0.962   0.091   0.016  0.00  0.00    +0.000 C 
ATOM      2  C   UNL     1       0.281  -0.974  -0.488  0.00  0.00    +0.000 C 
ATOM      3  C   UNL     1       1.331  -1.920  -0.894  0.00  0.00    +0.000 C 
ATOM      4  C   UNL     1       1.291  -2.005  -2.447  0.00  0.00    +0.000 C 
ATOM      5  C   UNL     1       1.063  -0.579  -2.955  0.00  0.00    +0.000 C 
ATOM      6  C   UNL     1      -0.050  -0.425  -3.652  0.00  0.00    +0.000 C 
ATOM      7  C   UNL     1      -0.429   0.953  -4.169  0.00  0.00    +0.000 C 
ATOM      8  C   UNL     1      -0.945  -1.599  -3.939  0.00  0.00    +0.000 C 
ATOM      9  C   UNL     1      -2.045  -1.695  -2.880  0.00  0.00    +0.000 C 
ATOM     10  C   UNL     1      -1.457  -2.383  -1.642  0.00  0.00    +0.000 C 
ATOM     11  C   UNL     1      -0.971  -1.371  -0.677  0.00  0.00    +0.000 C 
ATOM     12  C   UNL     1       0.297  -3.951  -0.850  0.00  0.00    +0.000 C 
ATOM     13  C   UNL     1      -0.291  -3.260  -2.069  0.00  0.00    +0.000 C 
ATOM     14  C   UNL     1      -0.780  -4.306  -3.057  0.00  0.00    +0.000 C 
ATOM     15  C   UNL     1       0.775  -2.400  -2.728  0.00  0.00    +0.000 C 
ENDROOT
TORSDOF 0
