REMARK  Name = 
REMARK  5 active torsions:
REMARK  status: ('A' for Active; 'I' for Inactive)
REMARK    1  A    between atoms: C_1  and  O_2
REMARK    2  A    between atoms: O_2  and  C_3
REMARK    3  A    between atoms: N_10  and  C_11
REMARK    4  A    between atoms: C_20  and  O_21
REMARK    5  A    between atoms: O_21  and  C_22
REMARK                            x       y       z     vdW  Elec       q    Type
REMARK                         _______ _______ _______ _____ _____    ______ ____
ROOT
ATOM      1  C   UNL     1       0.815  -0.649   2.451  0.00  0.00    +0.000 A 
ATOM      2  C   UNL     1      -0.142  -1.199   3.258  0.00  0.00    +0.000 A 
ATOM      3  C   UNL     1       0.202  -2.216   4.176  0.00  0.00    +0.000 A 
ATOM      4  N   UNL     1      -0.770  -2.784   4.960  0.00  0.00    +0.000 NA
ATOM      5  C   UNL     1      -0.381  -3.715   5.787  0.00  0.00    +0.000 A 
ATOM      6  N   UNL     1       0.895  -4.174   5.965  0.00  0.00    +0.000 NA
ATOM      7  C   UNL     1       1.837  -3.631   5.233  0.00  0.00    +0.000 A 
ATOM      8  N   UNL     1       3.227  -4.076   5.411  0.00  0.00    +0.000 N 
ATOM      9  C   UNL     1       1.552  -2.621   4.270  0.00  0.00    +0.000 A 
ATOM     10  C   UNL     1       2.526  -2.027   3.435  0.00  0.00    +0.000 A 
ATOM     11  C   UNL     1       2.157  -1.065   2.539  0.00  0.00    +0.000 A 
ATOM     12  H   UNL     1       3.971  -3.663   4.848  0.00  0.00    +0.000 HD
ENDROOT
BRANCH   8  13
ATOM     13  C   UNL     1       3.544  -5.117   6.399  0.00  0.00    +0.000 A 
ATOM     14  C   UNL     1       2.942  -6.354   6.237  0.00  0.00    +0.000 A 
ATOM     15  C   UNL     1       3.077  -7.335   7.213  0.00  0.00    +0.000 A 
ATOM     16  C   UNL     1       3.801  -7.067   8.370  0.00  0.00    +0.000 A 
ATOM     17  C   UNL     1       4.370  -5.814   8.527  0.00  0.00    +0.000 A 
ATOM     18 CL   UNL     1       5.258  -5.484   9.983  0.00  0.00    +0.000 Cl
ATOM     19  C   UNL     1       4.282  -4.835   7.548  0.00  0.00    +0.000 A 
ENDBRANCH   8  13
BRANCH   1  21
ATOM     20  C   UNL     1       0.945  -0.045   0.070  0.00  0.00    +0.000 C 
ATOM     21  O   UNL     1       0.471   0.221   1.382  0.00  0.00    +0.000 OA
ENDBRANCH   1  21
BRANCH  11  22
ATOM     22  O   UNL     1       3.134  -0.479   1.691  0.00  0.00    +0.000 OA
ATOM     23  C   UNL     1       2.755   0.522   0.757  0.00  0.00    +0.000 C 
ENDBRANCH  11  22
TORSDOF 3
