REMARK  Name = 
REMARK  11 active torsions:
REMARK  status: ('A' for Active; 'I' for Inactive)
REMARK    1  A    between atoms: C_5  and  O_6
REMARK    2  A    between atoms: C_9  and  C_10
REMARK    3  A    between atoms: C_15  and  C_16
REMARK    4  A    between atoms: C_20  and  C_21
REMARK    5  A    between atoms: C_21  and  C_22
REMARK    6  A    between atoms: C_21  and  C_23
REMARK    7  A    between atoms: C_23  and  C_24
REMARK    8  A    between atoms: C_24  and  C_25
REMARK    9  A    between atoms: C_25  and  C_26
REMARK   10  A    between atoms: C_26  and  C_27
REMARK   11  A    between atoms: C_26  and  C_28
REMARK                            x       y       z     vdW  Elec       q    Type
REMARK                         _______ _______ _______ _____ _____    ______ ____
ROOT
ATOM      1  C   UNL     1      -3.546  -0.082  -1.414  0.00  0.00    +0.000 C 
ATOM      2  C   UNL     1      -4.388   0.967  -1.620  0.00  0.00    +0.000 C 
ATOM      3  C   UNL     1      -4.126   2.474  -1.560  0.00  0.00    +0.000 C 
ATOM      4  C   UNL     1      -4.686   3.101  -2.715  0.00  0.00    +0.000 C 
ATOM      5  C   UNL     1      -6.102   2.946  -2.834  0.00  0.00    +0.000 C 
ATOM      6  C   UNL     1      -6.444   1.458  -2.946  0.00  0.00    +0.000 C 
ATOM      7  C   UNL     1      -7.952   1.286  -3.012  0.00  0.00    +0.000 C 
ATOM      8  C   UNL     1      -5.897   0.723  -1.718  0.00  0.00    +0.000 C 
ATOM      9  C   UNL     1      -7.668  -0.764  -4.373  0.00  0.00    +0.000 C 
ATOM     10  C   UNL     1      -6.159  -0.595  -4.312  0.00  0.00    +0.000 C 
ATOM     11  C   UNL     1      -5.818   0.883  -4.206  0.00  0.00    +0.000 C 
ENDROOT
BRANCH   1  19
ATOM     12  C   UNL     1       0.998  -0.077  -0.064  0.00  0.00    +0.000 C 
ATOM     13  C   UNL     1       0.318  -0.803  -0.992  0.00  0.00    +0.000 C 
ATOM     14  C   UNL     1       0.959  -1.706  -2.048  0.00  0.00    +0.000 C 
ATOM     15  C   UNL     1       0.498  -3.048  -1.870  0.00  0.00    +0.000 C 
ATOM     16  C   UNL     1      -0.915  -3.203  -2.016  0.00  0.00    +0.000 C 
ATOM     17  C   UNL     1      -1.631  -2.360  -0.958  0.00  0.00    +0.000 C 
ATOM     18  C   UNL     1      -1.207  -0.896  -1.110  0.00  0.00    +0.000 C 
ATOM     19  C   UNL     1      -2.048   0.153  -1.316  0.00  0.00    +0.000 C 
BRANCH  16  20
ATOM     20  O   UNL     1      -1.261  -4.569  -1.847  0.00  0.00    +0.000 OA
ATOM     21  H   UNL     1      -0.985  -4.873  -0.935  0.00  0.00    +0.000 HD
ENDBRANCH  16  20
ENDBRANCH   1  19
BRANCH  11  22
ATOM     22  C   UNL     1      -6.362   1.616  -5.421  0.00  0.00    +0.000 C 
ATOM     23  C   UNL     1      -6.021   3.094  -5.316  0.00  0.00    +0.000 C 
BRANCH  22  24
ATOM     24  C   UNL     1      -5.736   1.041  -6.682  0.00  0.00    +0.000 C 
BRANCH  24  25
ATOM     25  C   UNL     1      -6.077  -0.436  -6.788  0.00  0.00    +0.000 C 
BRANCH  25  26
ATOM     26  C   UNL     1      -7.586  -0.606  -6.848  0.00  0.00    +0.000 C 
BRANCH  26  27
ATOM     27  C   UNL     1      -8.129   0.128  -8.064  0.00  0.00    +0.000 C 
ATOM     28  C   UNL     1      -7.504  -0.447  -9.324  0.00  0.00    +0.000 C 
ATOM     29  C   UNL     1      -9.639  -0.041  -8.125  0.00  0.00    +0.000 C 
ENDBRANCH  26  27
ENDBRANCH  25  26
ENDBRANCH  24  25
ENDBRANCH  22  24
ENDBRANCH  11  22
TORSDOF 7
