MODEL 1
REMARK VINA RESULT:    -8.205      0.000      0.000
REMARK INTER + INTRA:          -9.308
REMARK INTER:                  -9.164
REMARK INTRA:                  -0.144
REMARK UNBOUND:                -0.144
REMARK  Name = 
REMARK  4 active torsions:
REMARK  status: ('A' for Active; 'I' for Inactive)
REMARK    1  A    between atoms: C_1  and  O_2
REMARK    2  A    between atoms: O_2  and  C_3
REMARK    3  A    between atoms: C_12  and  O_13
REMARK    4  A    between atoms: O_13  and  C_14
REMARK                            x       y       z     vdW  Elec       q    Type
REMARK                         _______ _______ _______ _____ _____    ______ ____
ROOT
ATOM      1  C   UNL     1     130.834 -88.537  28.994  0.00  0.00    +0.000 A 
ATOM      2  C   UNL     1     130.182 -89.026  30.086  0.00  0.00    +0.000 A 
ATOM      3  C   UNL     1     128.792 -89.074  30.106  0.00  0.00    +0.000 A 
ATOM      4  C   UNL     1     128.032 -89.603  31.181  0.00  0.00    +0.000 A 
ATOM      5  C   UNL     1     126.679 -89.657  31.159  0.00  0.00    +0.000 A 
ATOM      6  N   UNL     1     126.015 -89.177  30.052  0.00  0.00    +0.000 N 
ATOM      7  C   UNL     1     126.670 -88.636  29.021  0.00  0.00    +0.000 A 
ATOM      8  C   UNL     1     128.071 -88.559  28.995  0.00  0.00    +0.000 A 
ATOM      9  C   UNL     1     128.769 -88.021  27.887  0.00  0.00    +0.000 A 
ATOM     10  C   UNL     1     130.138 -88.022  27.893  0.00  0.00    +0.000 A 
ATOM     11  C   UNL     1     124.543 -89.295  29.945  0.00  0.00    +0.000 C 
ATOM     12  C   UNL     1     123.865 -89.156  31.219  0.00  0.00    +0.000 C 
ATOM     13  C   UNL     1     124.495 -89.993  32.303  0.00  0.00    +0.000 A 
ATOM     14  C   UNL     1     123.723 -90.461  33.355  0.00  0.00    +0.000 A 
ATOM     15  C   UNL     1     124.374 -91.125  34.366  0.00  0.00    +0.000 A 
ATOM     16  C   UNL     1     125.732 -91.323  34.359  0.00  0.00    +0.000 A 
ATOM     17  C   UNL     1     126.507 -90.893  33.325  0.00  0.00    +0.000 A 
ATOM     18  C   UNL     1     125.858 -90.204  32.273  0.00  0.00    +0.000 A 
ATOM     19  O   UNL     1     126.111 -92.018  35.457  0.00  0.00    +0.000 OA
ATOM     20  C   UNL     1     124.955 -92.115  36.278  0.00  0.00    +0.000 C 
ATOM     21  O   UNL     1     123.824 -91.682  35.485  0.00  0.00    +0.000 OA
ENDROOT
BRANCH   1  23
ATOM     22  C   UNL     1     132.999 -87.707  29.814  0.00  0.00    +0.000 C 
ATOM     23  O   UNL     1     132.252 -88.545  28.943  0.00  0.00    +0.000 OA
ENDBRANCH   1  23
BRANCH  10  24
ATOM     24  O   UNL     1     130.853 -87.501  26.782  0.00  0.00    +0.000 OA
ATOM     25  C   UNL     1     131.023 -88.290  25.613  0.00  0.00    +0.000 C 
ENDBRANCH  10  24
TORSDOF 2
ENDMDL
MODEL 2
REMARK VINA RESULT:    -7.716     59.995     61.541
REMARK INTER + INTRA:          -8.762
REMARK INTER:                  -8.611
REMARK INTRA:                  -0.151
REMARK UNBOUND:                -0.144
REMARK  Name = 
REMARK  4 active torsions:
REMARK  status: ('A' for Active; 'I' for Inactive)
REMARK    1  A    between atoms: C_1  and  O_2
REMARK    2  A    between atoms: O_2  and  C_3
REMARK    3  A    between atoms: C_12  and  O_13
REMARK    4  A    between atoms: O_13  and  C_14
REMARK                            x       y       z     vdW  Elec       q    Type
REMARK                         _______ _______ _______ _____ _____    ______ ____
ROOT
ATOM      1  C   UNL     1     167.478 -52.156  60.349  0.00  0.00    +0.000 A 
ATOM      2  C   UNL     1     166.967 -52.275  61.607  0.00  0.00    +0.000 A 
ATOM      3  C   UNL     1     165.597 -52.155  61.818  0.00  0.00    +0.000 A 
ATOM      4  C   UNL     1     164.974 -52.304  63.085  0.00  0.00    +0.000 A 
ATOM      5  C   UNL     1     163.634 -52.204  63.252  0.00  0.00    +0.000 A 
ATOM      6  N   UNL     1     162.846 -51.944  62.153  0.00  0.00    +0.000 N 
ATOM      7  C   UNL     1     163.373 -51.760  60.939  0.00  0.00    +0.000 A 
ATOM      8  C   UNL     1     164.755 -51.855  60.713  0.00  0.00    +0.000 A 
ATOM      9  C   UNL     1     165.313 -51.699  59.421  0.00  0.00    +0.000 A 
ATOM     10  C   UNL     1     166.662 -51.858  59.250  0.00  0.00    +0.000 A 
ATOM     11  C   UNL     1     161.371 -51.913  62.273  0.00  0.00    +0.000 C 
ATOM     12  C   UNL     1     160.912 -51.380  63.541  0.00  0.00    +0.000 C 
ATOM     13  C   UNL     1     161.634 -51.985  64.718  0.00  0.00    +0.000 A 
ATOM     14  C   UNL     1     161.001 -52.080  65.947  0.00  0.00    +0.000 A 
ATOM     15  C   UNL     1     161.747 -52.539  67.005  0.00  0.00    +0.000 A 
ATOM     16  C   UNL     1     163.067 -52.889  66.875  0.00  0.00    +0.000 A 
ATOM     17  C   UNL     1     163.704 -52.826  65.673  0.00  0.00    +0.000 A 
ATOM     18  C   UNL     1     162.956 -52.354  64.568  0.00  0.00    +0.000 A 
ATOM     19  O   UNL     1     163.557 -53.324  68.060  0.00  0.00    +0.000 OA
ATOM     20  C   UNL     1     162.538 -53.076  69.020  0.00  0.00    +0.000 C 
ATOM     21  O   UNL     1     161.335 -52.729  68.293  0.00  0.00    +0.000 OA
ENDROOT
BRANCH   1  23
ATOM     22  C   UNL     1     169.775 -51.279  60.369  0.00  0.00    +0.000 C 
ATOM     23  O   UNL     1     168.866 -52.342  60.119  0.00  0.00    +0.000 OA
ENDBRANCH   1  23
BRANCH  10  24
ATOM     24  O   UNL     1     167.234 -51.720  57.957  0.00  0.00    +0.000 OA
ATOM     25  C   UNL     1     167.113 -50.493  57.254  0.00  0.00    +0.000 C 
ENDBRANCH  10  24
TORSDOF 2
ENDMDL
MODEL 3
REMARK VINA RESULT:    -7.617    119.197    120.518
REMARK INTER + INTRA:          -8.652
REMARK INTER:                  -8.500
REMARK INTRA:                  -0.151
REMARK UNBOUND:                -0.144
REMARK  Name = 
REMARK  4 active torsions:
REMARK  status: ('A' for Active; 'I' for Inactive)
REMARK    1  A    between atoms: C_1  and  O_2
REMARK    2  A    between atoms: O_2  and  C_3
REMARK    3  A    between atoms: C_12  and  O_13
REMARK    4  A    between atoms: O_13  and  C_14
REMARK                            x       y       z     vdW  Elec       q    Type
REMARK                         _______ _______ _______ _____ _____    ______ ____
ROOT
ATOM      1  C   UNL     1      89.324  25.119  37.062  0.00  0.00    +0.000 A 
ATOM      2  C   UNL     1      88.433  24.090  37.002  0.00  0.00    +0.000 A 
ATOM      3  C   UNL     1      87.257  24.227  36.270  0.00  0.00    +0.000 A 
ATOM      4  C   UNL     1      86.294  23.196  36.119  0.00  0.00    +0.000 A 
ATOM      5  C   UNL     1      85.170  23.354  35.380  0.00  0.00    +0.000 A 
ATOM      6  N   UNL     1      84.952  24.561  34.754  0.00  0.00    +0.000 N 
ATOM      7  C   UNL     1      85.804  25.582  34.884  0.00  0.00    +0.000 A 
ATOM      8  C   UNL     1      86.983  25.468  35.637  0.00  0.00    +0.000 A 
ATOM      9  C   UNL     1      87.906  26.536  35.744  0.00  0.00    +0.000 A 
ATOM     10  C   UNL     1      89.067  26.351  36.446  0.00  0.00    +0.000 A 
ATOM     11  C   UNL     1      83.783  24.750  33.866  0.00  0.00    +0.000 C 
ATOM     12  C   UNL     1      82.607  24.027  34.309  0.00  0.00    +0.000 C 
ATOM     13  C   UNL     1      82.910  22.594  34.667  0.00  0.00    +0.000 A 
ATOM     14  C   UNL     1      81.928  21.624  34.538  0.00  0.00    +0.000 A 
ATOM     15  C   UNL     1      82.231  20.360  34.983  0.00  0.00    +0.000 A 
ATOM     16  C   UNL     1      83.445  20.049  35.541  0.00  0.00    +0.000 A 
ATOM     17  C   UNL     1      84.432  20.981  35.657  0.00  0.00    +0.000 A 
ATOM     18  C   UNL     1      84.143  22.291  35.207  0.00  0.00    +0.000 A 
ATOM     19  O   UNL     1      83.487  18.738  35.874  0.00  0.00    +0.000 OA
ATOM     20  C   UNL     1      82.173  18.239  35.669  0.00  0.00    +0.000 C 
ATOM     21  O   UNL     1      81.434  19.251  34.945  0.00  0.00    +0.000 OA
ENDROOT
BRANCH   1  23
ATOM     22  C   UNL     1      91.533  24.057  37.263  0.00  0.00    +0.000 C 
ATOM     23  O   UNL     1      90.554  24.963  37.753  0.00  0.00    +0.000 OA
ENDBRANCH   1  23
BRANCH  10  24
ATOM     24  O   UNL     1      90.011  27.407  36.549  0.00  0.00    +0.000 OA
ATOM     25  C   UNL     1      90.589  27.960  35.376  0.00  0.00    +0.000 C 
ENDBRANCH  10  24
TORSDOF 2
ENDMDL
MODEL 4
REMARK VINA RESULT:    -7.257     84.666     86.429
REMARK INTER + INTRA:          -8.250
REMARK INTER:                  -8.128
REMARK INTRA:                  -0.122
REMARK UNBOUND:                -0.144
REMARK  Name = 
REMARK  4 active torsions:
REMARK  status: ('A' for Active; 'I' for Inactive)
REMARK    1  A    between atoms: C_1  and  O_2
REMARK    2  A    between atoms: O_2  and  C_3
REMARK    3  A    between atoms: C_12  and  O_13
REMARK    4  A    between atoms: O_13  and  C_14
REMARK                            x       y       z     vdW  Elec       q    Type
REMARK                         _______ _______ _______ _____ _____    ______ ____
ROOT
ATOM      1  C   UNL     1      90.263 -11.586  27.357  0.00  0.00    +0.000 A 
ATOM      2  C   UNL     1      89.738 -11.337  26.124  0.00  0.00    +0.000 A 
ATOM      3  C   UNL     1      89.472 -12.389  25.253  0.00  0.00    +0.000 A 
ATOM      4  C   UNL     1      88.890 -12.227  23.968  0.00  0.00    +0.000 A 
ATOM      5  C   UNL     1      88.622 -13.275  23.154  0.00  0.00    +0.000 A 
ATOM      6  N   UNL     1      88.929 -14.546  23.587  0.00  0.00    +0.000 N 
ATOM      7  C   UNL     1      89.509 -14.763  24.771  0.00  0.00    +0.000 A 
ATOM      8  C   UNL     1      89.805 -13.711  25.651  0.00  0.00    +0.000 A 
ATOM      9  C   UNL     1      90.384 -13.942  26.922  0.00  0.00    +0.000 A 
ATOM     10  C   UNL     1      90.599 -12.883  27.763  0.00  0.00    +0.000 A 
ATOM     11  C   UNL     1      88.574 -15.727  22.769  0.00  0.00    +0.000 C 
ATOM     12  C   UNL     1      88.675 -15.485  21.342  0.00  0.00    +0.000 C 
ATOM     13  C   UNL     1      88.009 -14.199  20.926  0.00  0.00    +0.000 A 
ATOM     14  C   UNL     1      87.484 -14.070  19.650  0.00  0.00    +0.000 A 
ATOM     15  C   UNL     1      86.988 -12.839  19.294  0.00  0.00    +0.000 A 
ATOM     16  C   UNL     1      87.007 -11.766  20.149  0.00  0.00    +0.000 A 
ATOM     17  C   UNL     1      87.497 -11.875  21.415  0.00  0.00    +0.000 A 
ATOM     18  C   UNL     1      88.015 -13.133  21.803  0.00  0.00    +0.000 A 
ATOM     19  O   UNL     1      86.443 -10.686  19.559  0.00  0.00    +0.000 OA
ATOM     20  C   UNL     1      86.210 -11.055  18.206  0.00  0.00    +0.000 C 
ATOM     21  O   UNL     1      86.414 -12.484  18.107  0.00  0.00    +0.000 OA
ENDROOT
BRANCH   1  23
ATOM     22  C   UNL     1      90.139  -9.192  27.906  0.00  0.00    +0.000 C 
ATOM     23  O   UNL     1      90.476 -10.523  28.272  0.00  0.00    +0.000 OA
ENDBRANCH   1  23
BRANCH  10  24
ATOM     24  O   UNL     1      91.164 -13.100  29.048  0.00  0.00    +0.000 OA
ATOM     25  C   UNL     1      92.165 -14.092  29.226  0.00  0.00    +0.000 C 
ENDBRANCH  10  24
TORSDOF 2
ENDMDL
MODEL 5
REMARK VINA RESULT:    -7.062    119.327    120.766
REMARK INTER + INTRA:          -8.032
REMARK INTER:                  -7.913
REMARK INTRA:                  -0.119
REMARK UNBOUND:                -0.144
REMARK  Name = 
REMARK  4 active torsions:
REMARK  status: ('A' for Active; 'I' for Inactive)
REMARK    1  A    between atoms: C_1  and  O_2
REMARK    2  A    between atoms: O_2  and  C_3
REMARK    3  A    between atoms: C_12  and  O_13
REMARK    4  A    between atoms: O_13  and  C_14
REMARK                            x       y       z     vdW  Elec       q    Type
REMARK                         _______ _______ _______ _____ _____    ______ ____
ROOT
ATOM      1  C   UNL     1      82.368  21.871  34.406  0.00  0.00    +0.000 A 
ATOM      2  C   UNL     1      83.578  21.794  35.029  0.00  0.00    +0.000 A 
ATOM      3  C   UNL     1      84.394  22.919  35.108  0.00  0.00    +0.000 A 
ATOM      4  C   UNL     1      85.649  22.942  35.772  0.00  0.00    +0.000 A 
ATOM      5  C   UNL     1      86.408  24.060  35.851  0.00  0.00    +0.000 A 
ATOM      6  N   UNL     1      85.948  25.217  35.264  0.00  0.00    +0.000 N 
ATOM      7  C   UNL     1      84.792  25.253  34.596  0.00  0.00    +0.000 A 
ATOM      8  C   UNL     1      83.968  24.123  34.487  0.00  0.00    +0.000 A 
ATOM      9  C   UNL     1      82.723  24.168  33.812  0.00  0.00    +0.000 A 
ATOM     10  C   UNL     1      81.935  23.049  33.785  0.00  0.00    +0.000 A 
ATOM     11  C   UNL     1      86.702  26.484  35.400  0.00  0.00    +0.000 C 
ATOM     12  C   UNL     1      88.139  26.294  35.420  0.00  0.00    +0.000 C 
ATOM     13  C   UNL     1      88.564  25.195  36.361  0.00  0.00    +0.000 A 
ATOM     14  C   UNL     1      89.813  25.239  36.961  0.00  0.00    +0.000 A 
ATOM     15  C   UNL     1      90.184  24.156  37.721  0.00  0.00    +0.000 A 
ATOM     16  C   UNL     1      89.371  23.064  37.888  0.00  0.00    +0.000 A 
ATOM     17  C   UNL     1      88.131  23.008  37.327  0.00  0.00    +0.000 A 
ATOM     18  C   UNL     1      87.727  24.112  36.538  0.00  0.00    +0.000 A 
ATOM     19  O   UNL     1      89.967  22.154  38.694  0.00  0.00    +0.000 OA
ATOM     20  C   UNL     1      91.290  22.626  38.907  0.00  0.00    +0.000 C 
ATOM     21  O   UNL     1      91.349  23.985  38.412  0.00  0.00    +0.000 OA
ENDROOT
BRANCH   1  23
ATOM     22  C   UNL     1      81.936  19.506  34.924  0.00  0.00    +0.000 C 
ATOM     23  O   UNL     1      81.505  20.745  34.379  0.00  0.00    +0.000 OA
ENDBRANCH   1  23
BRANCH  10  24
ATOM     24  O   UNL     1      80.676  23.083  33.127  0.00  0.00    +0.000 OA
ATOM     25  C   UNL     1      80.154  24.316  32.657  0.00  0.00    +0.000 C 
ENDBRANCH  10  24
TORSDOF 2
ENDMDL
MODEL 6
REMARK VINA RESULT:    -7.001     84.756     86.404
REMARK INTER + INTRA:          -7.964
REMARK INTER:                  -7.804
REMARK INTRA:                  -0.160
REMARK UNBOUND:                -0.144
REMARK  Name = 
REMARK  4 active torsions:
REMARK  status: ('A' for Active; 'I' for Inactive)
REMARK    1  A    between atoms: C_1  and  O_2
REMARK    2  A    between atoms: O_2  and  C_3
REMARK    3  A    between atoms: C_12  and  O_13
REMARK    4  A    between atoms: O_13  and  C_14
REMARK                            x       y       z     vdW  Elec       q    Type
REMARK                         _______ _______ _______ _____ _____    ______ ____
ROOT
ATOM      1  C   UNL     1      87.006 -12.654  19.938  0.00  0.00    +0.000 A 
ATOM      2  C   UNL     1      87.326 -12.095  21.139  0.00  0.00    +0.000 A 
ATOM      3  C   UNL     1      88.137 -12.784  22.035  0.00  0.00    +0.000 A 
ATOM      4  C   UNL     1      88.554 -12.264  23.288  0.00  0.00    +0.000 A 
ATOM      5  C   UNL     1      89.364 -12.951  24.128  0.00  0.00    +0.000 A 
ATOM      6  N   UNL     1      89.797 -14.203  23.754  0.00  0.00    +0.000 N 
ATOM      7  C   UNL     1      89.415 -14.763  22.602  0.00  0.00    +0.000 A 
ATOM      8  C   UNL     1      88.578 -14.092  21.698  0.00  0.00    +0.000 A 
ATOM      9  C   UNL     1      88.202 -14.667  20.460  0.00  0.00    +0.000 A 
ATOM     10  C   UNL     1      87.430 -13.943  19.592  0.00  0.00    +0.000 A 
ATOM     11  C   UNL     1      90.753 -14.955  24.598  0.00  0.00    +0.000 C 
ATOM     12  C   UNL     1      90.557 -14.733  26.018  0.00  0.00    +0.000 C 
ATOM     13  C   UNL     1      90.415 -13.273  26.361  0.00  0.00    +0.000 A 
ATOM     14  C   UNL     1      90.801 -12.812  27.610  0.00  0.00    +0.000 A 
ATOM     15  C   UNL     1      90.547 -11.494  27.901  0.00  0.00    +0.000 A 
ATOM     16  C   UNL     1      89.931 -10.651  27.011  0.00  0.00    +0.000 A 
ATOM     17  C   UNL     1      89.563 -11.076  25.769  0.00  0.00    +0.000 A 
ATOM     18  C   UNL     1      89.813 -12.431  25.447  0.00  0.00    +0.000 A 
ATOM     19  O   UNL     1      89.819  -9.410  27.538  0.00  0.00    +0.000 OA
ATOM     20  C   UNL     1      90.235  -9.521  28.892  0.00  0.00    +0.000 C 
ATOM     21  O   UNL     1      90.849 -10.822  29.051  0.00  0.00    +0.000 OA
ENDROOT
BRANCH   1  23
ATOM     22  C   UNL     1      86.696 -10.677  18.508  0.00  0.00    +0.000 C 
ATOM     23  O   UNL     1      86.233 -11.929  18.994  0.00  0.00    +0.000 OA
ENDBRANCH   1  23
BRANCH  10  24
ATOM     24  O   UNL     1      87.058 -14.500  18.339  0.00  0.00    +0.000 OA
ATOM     25  C   UNL     1      87.963 -14.457  17.246  0.00  0.00    +0.000 C 
ENDBRANCH  10  24
TORSDOF 2
ENDMDL
MODEL 7
REMARK VINA RESULT:    -6.733    119.143    120.646
REMARK INTER + INTRA:          -7.664
REMARK INTER:                  -7.540
REMARK INTRA:                  -0.124
REMARK UNBOUND:                -0.144
REMARK  Name = 
REMARK  4 active torsions:
REMARK  status: ('A' for Active; 'I' for Inactive)
REMARK    1  A    between atoms: C_1  and  O_2
REMARK    2  A    between atoms: O_2  and  C_3
REMARK    3  A    between atoms: C_12  and  O_13
REMARK    4  A    between atoms: O_13  and  C_14
REMARK                            x       y       z     vdW  Elec       q    Type
REMARK                         _______ _______ _______ _____ _____    ______ ____
ROOT
ATOM      1  C   UNL     1      82.342  22.346  34.582  0.00  0.00    +0.000 A 
ATOM      2  C   UNL     1      83.357  23.255  34.592  0.00  0.00    +0.000 A 
ATOM      3  C   UNL     1      84.552  22.960  35.240  0.00  0.00    +0.000 A 
ATOM      4  C   UNL     1      85.674  23.828  35.268  0.00  0.00    +0.000 A 
ATOM      5  C   UNL     1      86.832  23.500  35.888  0.00  0.00    +0.000 A 
ATOM      6  N   UNL     1      86.923  22.280  36.519  0.00  0.00    +0.000 N 
ATOM      7  C   UNL     1      85.892  21.431  36.558  0.00  0.00    +0.000 A 
ATOM      8  C   UNL     1      84.672  21.724  35.929  0.00  0.00    +0.000 A 
ATOM      9  C   UNL     1      83.591  20.810  35.937  0.00  0.00    +0.000 A 
ATOM     10  C   UNL     1      82.443  21.124  35.259  0.00  0.00    +0.000 A 
ATOM     11  C   UNL     1      88.197  21.842  37.134  0.00  0.00    +0.000 C 
ATOM     12  C   UNL     1      88.953  22.933  37.718  0.00  0.00    +0.000 C 
ATOM     13  C   UNL     1      89.067  24.118  36.793  0.00  0.00    +0.000 A 
ATOM     14  C   UNL     1      90.163  24.961  36.877  0.00  0.00    +0.000 A 
ATOM     15  C   UNL     1      90.156  26.083  36.084  0.00  0.00    +0.000 A 
ATOM     16  C   UNL     1      89.116  26.379  35.241  0.00  0.00    +0.000 A 
ATOM     17  C   UNL     1      88.038  25.553  35.125  0.00  0.00    +0.000 A 
ATOM     18  C   UNL     1      88.022  24.392  35.934  0.00  0.00    +0.000 A 
ATOM     19  O   UNL     1      89.370  27.523  34.564  0.00  0.00    +0.000 OA
ATOM     20  C   UNL     1      90.555  28.061  35.135  0.00  0.00    +0.000 C 
ATOM     21  O   UNL     1      91.125  27.040  35.988  0.00  0.00    +0.000 OA
ENDROOT
BRANCH   1  23
ATOM     22  C   UNL     1      81.170  23.483  32.743  0.00  0.00    +0.000 C 
ATOM     23  O   UNL     1      81.145  22.616  33.868  0.00  0.00    +0.000 OA
ENDBRANCH   1  23
BRANCH  10  24
ATOM     24  O   UNL     1      81.355  20.211  35.243  0.00  0.00    +0.000 OA
ATOM     25  C   UNL     1      81.602  18.814  35.201  0.00  0.00    +0.000 C 
ENDBRANCH  10  24
TORSDOF 2
ENDMDL
MODEL 8
REMARK VINA RESULT:    -6.726     41.298     44.801
REMARK INTER + INTRA:          -7.656
REMARK INTER:                  -7.492
REMARK INTRA:                  -0.164
REMARK UNBOUND:                -0.144
REMARK  Name = 
REMARK  4 active torsions:
REMARK  status: ('A' for Active; 'I' for Inactive)
REMARK    1  A    between atoms: C_1  and  O_2
REMARK    2  A    between atoms: O_2  and  C_3
REMARK    3  A    between atoms: C_12  and  O_13
REMARK    4  A    between atoms: O_13  and  C_14
REMARK                            x       y       z     vdW  Elec       q    Type
REMARK                         _______ _______ _______ _____ _____    ______ ____
ROOT
ATOM      1  C   UNL     1     127.988 -50.305  17.090  0.00  0.00    +0.000 A 
ATOM      2  C   UNL     1     128.787 -50.512  16.005  0.00  0.00    +0.000 A 
ATOM      3  C   UNL     1     129.009 -49.483  15.096  0.00  0.00    +0.000 A 
ATOM      4  C   UNL     1     129.856 -49.596  13.962  0.00  0.00    +0.000 A 
ATOM      5  C   UNL     1     130.070 -48.567  13.109  0.00  0.00    +0.000 A 
ATOM      6  N   UNL     1     129.441 -47.365  13.348  0.00  0.00    +0.000 N 
ATOM      7  C   UNL     1     128.605 -47.204  14.378  0.00  0.00    +0.000 A 
ATOM      8  C   UNL     1     128.352 -48.239  15.291  0.00  0.00    +0.000 A 
ATOM      9  C   UNL     1     127.497 -48.058  16.405  0.00  0.00    +0.000 A 
ATOM     10  C   UNL     1     127.330 -49.086  17.295  0.00  0.00    +0.000 A 
ATOM     11  C   UNL     1     129.713 -46.188  12.493  0.00  0.00    +0.000 C 
ATOM     12  C   UNL     1     129.949 -46.532  11.105  0.00  0.00    +0.000 C 
ATOM     13  C   UNL     1     130.923 -47.672  10.949  0.00  0.00    +0.000 A 
ATOM     14  C   UNL     1     131.706 -47.764   9.809  0.00  0.00    +0.000 A 
ATOM     15  C   UNL     1     132.494 -48.882   9.676  0.00  0.00    +0.000 A 
ATOM     16  C   UNL     1     132.516 -49.880  10.616  0.00  0.00    +0.000 A 
ATOM     17  C   UNL     1     131.772 -49.800  11.755  0.00  0.00    +0.000 A 
ATOM     18  C   UNL     1     130.951 -48.659  11.913  0.00  0.00    +0.000 A 
ATOM     19  O   UNL     1     133.387 -50.850  10.252  0.00  0.00    +0.000 OA
ATOM     20  C   UNL     1     133.808 -50.524   8.934  0.00  0.00    +0.000 C 
ATOM     21  O   UNL     1     133.352 -49.179   8.656  0.00  0.00    +0.000 OA
ENDROOT
BRANCH   1  23
ATOM     22  C   UNL     1     127.119 -52.522  17.703  0.00  0.00    +0.000 C 
ATOM     23  O   UNL     1     127.809 -51.331  18.054  0.00  0.00    +0.000 OA
ENDBRANCH   1  23
BRANCH  10  24
ATOM     24  O   UNL     1     126.489 -48.915  18.427  0.00  0.00    +0.000 OA
ATOM     25  C   UNL     1     125.092 -49.139  18.313  0.00  0.00    +0.000 C 
ENDBRANCH  10  24
TORSDOF 2
ENDMDL
MODEL 9
REMARK VINA RESULT:    -6.726     40.042     42.585
REMARK INTER + INTRA:          -7.656
REMARK INTER:                  -7.511
REMARK INTRA:                  -0.145
REMARK UNBOUND:                -0.144
REMARK  Name = 
REMARK  4 active torsions:
REMARK  status: ('A' for Active; 'I' for Inactive)
REMARK    1  A    between atoms: C_1  and  O_2
REMARK    2  A    between atoms: O_2  and  C_3
REMARK    3  A    between atoms: C_12  and  O_13
REMARK    4  A    between atoms: O_13  and  C_14
REMARK                            x       y       z     vdW  Elec       q    Type
REMARK                         _______ _______ _______ _____ _____    ______ ____
ROOT
ATOM      1  C   UNL     1     130.658 -48.680  12.891  0.00  0.00    +0.000 A 
ATOM      2  C   UNL     1     130.288 -49.528  13.892  0.00  0.00    +0.000 A 
ATOM      3  C   UNL     1     129.229 -49.197  14.731  0.00  0.00    +0.000 A 
ATOM      4  C   UNL     1     128.750 -50.035  15.771  0.00  0.00    +0.000 A 
ATOM      5  C   UNL     1     127.700 -49.693  16.555  0.00  0.00    +0.000 A 
ATOM      6  N   UNL     1     127.076 -48.485  16.338  0.00  0.00    +0.000 N 
ATOM      7  C   UNL     1     127.499 -47.636  15.398  0.00  0.00    +0.000 A 
ATOM      8  C   UNL     1     128.580 -47.944  14.558  0.00  0.00    +0.000 A 
ATOM      9  C   UNL     1     129.007 -47.063  13.535  0.00  0.00    +0.000 A 
ATOM     10  C   UNL     1     130.032 -47.440  12.710  0.00  0.00    +0.000 A 
ATOM     11  C   UNL     1     125.871 -48.109  17.112  0.00  0.00    +0.000 C 
ATOM     12  C   UNL     1     125.898 -48.589  18.480  0.00  0.00    +0.000 C 
ATOM     13  C   UNL     1     126.288 -50.041  18.575  0.00  0.00    +0.000 A 
ATOM     14  C   UNL     1     125.826 -50.816  19.627  0.00  0.00    +0.000 A 
ATOM     15  C   UNL     1     126.303 -52.102  19.719  0.00  0.00    +0.000 A 
ATOM     16  C   UNL     1     127.205 -52.616  18.821  0.00  0.00    +0.000 A 
ATOM     17  C   UNL     1     127.655 -51.880  17.767  0.00  0.00    +0.000 A 
ATOM     18  C   UNL     1     127.179 -50.552  17.653  0.00  0.00    +0.000 A 
ATOM     19  O   UNL     1     127.493 -53.902  19.129  0.00  0.00    +0.000 OA
ATOM     20  C   UNL     1     126.868 -54.155  20.380  0.00  0.00    +0.000 C 
ATOM     21  O   UNL     1     125.981 -53.044  20.653  0.00  0.00    +0.000 OA
ENDROOT
BRANCH   1  23
ATOM     22  C   UNL     1     131.460 -50.026  10.996  0.00  0.00    +0.000 C 
ATOM     23  O   UNL     1     131.695 -49.041  11.993  0.00  0.00    +0.000 OA
ENDBRANCH   1  23
BRANCH  10  24
ATOM     24  O   UNL     1     130.460 -46.574  11.668  0.00  0.00    +0.000 OA
ATOM     25  C   UNL     1     129.869 -46.664  10.381  0.00  0.00    +0.000 C 
ENDBRANCH  10  24
TORSDOF 2
ENDMDL
MODEL 10
REMARK VINA RESULT:    -6.683    101.182    102.272
REMARK INTER + INTRA:          -7.608
REMARK INTER:                  -7.436
REMARK INTRA:                  -0.172
REMARK UNBOUND:                -0.144
REMARK  Name = 
REMARK  4 active torsions:
REMARK  status: ('A' for Active; 'I' for Inactive)
REMARK    1  A    between atoms: C_1  and  O_2
REMARK    2  A    between atoms: O_2  and  C_3
REMARK    3  A    between atoms: C_12  and  O_13
REMARK    4  A    between atoms: O_13  and  C_14
REMARK                            x       y       z     vdW  Elec       q    Type
REMARK                         _______ _______ _______ _____ _____    ______ ____
ROOT
ATOM      1  C   UNL     1      67.143  -6.387  40.608  0.00  0.00    +0.000 A 
ATOM      2  C   UNL     1      66.488  -6.881  39.520  0.00  0.00    +0.000 A 
ATOM      3  C   UNL     1      67.122  -6.918  38.282  0.00  0.00    +0.000 A 
ATOM      4  C   UNL     1      66.533  -7.452  37.105  0.00  0.00    +0.000 A 
ATOM      5  C   UNL     1      67.186  -7.494  35.920  0.00  0.00    +0.000 A 
ATOM      6  N   UNL     1      68.469  -6.999  35.852  0.00  0.00    +0.000 N 
ATOM      7  C   UNL     1      69.068  -6.453  36.915  0.00  0.00    +0.000 A 
ATOM      8  C   UNL     1      68.434  -6.387  38.165  0.00  0.00    +0.000 A 
ATOM      9  C   UNL     1      69.081  -5.844  39.302  0.00  0.00    +0.000 A 
ATOM     10  C   UNL     1      68.436  -5.857  40.509  0.00  0.00    +0.000 A 
ATOM     11  C   UNL     1      69.253  -7.104  34.601  0.00  0.00    +0.000 C 
ATOM     12  C   UNL     1      68.442  -6.972  33.406  0.00  0.00    +0.000 C 
ATOM     13  C   UNL     1      67.200  -7.824  33.453  0.00  0.00    +0.000 A 
ATOM     14  C   UNL     1      66.636  -8.296  32.278  0.00  0.00    +0.000 A 
ATOM     15  C   UNL     1      65.446  -8.974  32.379  0.00  0.00    +0.000 A 
ATOM     16  C   UNL     1      64.820  -9.183  33.582  0.00  0.00    +0.000 A 
ATOM     17  C   UNL     1      65.366  -8.749  34.752  0.00  0.00    +0.000 A 
ATOM     18  C   UNL     1      66.592  -8.045  34.672  0.00  0.00    +0.000 A 
ATOM     19  O   UNL     1      63.680  -9.891  33.402  0.00  0.00    +0.000 OA
ATOM     20  C   UNL     1      63.496  -9.987  31.996  0.00  0.00    +0.000 C 
ATOM     21  O   UNL     1      64.721  -9.537  31.368  0.00  0.00    +0.000 OA
ENDROOT
BRANCH   1  23
ATOM     22  C   UNL     1      66.559  -7.588  42.673  0.00  0.00    +0.000 C 
ATOM     23  O   UNL     1      66.525  -6.406  41.885  0.00  0.00    +0.000 OA
ENDBRANCH   1  23
BRANCH  10  24
ATOM     24  O   UNL     1      69.077  -5.331  41.663  0.00  0.00    +0.000 OA
ATOM     25  C   UNL     1      70.073  -6.092  42.330  0.00  0.00    +0.000 C 
ENDBRANCH  10  24
TORSDOF 2
ENDMDL
