REMARK  Name = 
REMARK  8 active torsions:
REMARK  status: ('A' for Active; 'I' for Inactive)
REMARK    1  A    between atoms: C_1  and  O_2
REMARK    2  A    between atoms: O_2  and  C_3
REMARK    3  A    between atoms: C_8  and  O_9
REMARK    4  A    between atoms: O_9  and  C_10
REMARK    5  A    between atoms: C_13  and  C_14
REMARK    6  A    between atoms: C_14  and  C_15
REMARK    7  A    between atoms: N_18  and  C_19
REMARK    8  A    between atoms: C_19  and  C_20
REMARK                            x       y       z     vdW  Elec       q    Type
REMARK                         _______ _______ _______ _____ _____    ______ ____
ROOT
ATOM      1  C   UNL     1       0.957  -0.717   2.301  0.00  0.00    +0.000 A 
ATOM      2  C   UNL     1      -0.009  -0.992   3.259  0.00  0.00    +0.000 A 
ATOM      3  C   UNL     1       0.361  -1.734   4.378  0.00  0.00    +0.000 A 
ATOM      4  C   UNL     1       1.668  -2.176   4.508  0.00  0.00    +0.000 A 
ATOM      5  C   UNL     1       2.630  -1.924   3.535  0.00  0.00    +0.000 A 
ATOM      6  C   UNL     1       2.261  -1.183   2.440  0.00  0.00    +0.000 A 
ATOM      7  C   UNL     1       1.834  -2.909   5.769  0.00  0.00    +0.000 C 
ATOM      8  O   UNL     1       2.857  -3.404   6.210  0.00  0.00    +0.000 OA
ATOM      9  C   UNL     1       0.474  -2.916   6.484  0.00  0.00    +0.000 C 
ATOM     10  C   UNL     1      -0.494  -2.164   5.547  0.00  0.00    +0.000 C 
ENDROOT
BRANCH   1  12
ATOM     11  C   UNL     1      -0.103  -0.245   0.133  0.00  0.00    +0.000 C 
ATOM     12  O   UNL     1       0.614   0.201   1.274  0.00  0.00    +0.000 OA
ENDBRANCH   1  12
BRANCH   6  13
ATOM     13  O   UNL     1       3.222  -0.887   1.438  0.00  0.00    +0.000 OA
ATOM     14  C   UNL     1       4.597  -1.156   1.670  0.00  0.00    +0.000 C 
ENDBRANCH   6  13
BRANCH   9  15
ATOM     15  C   UNL     1      -0.003  -4.331   6.766  0.00  0.00    +0.000 C 
BRANCH  15  16
ATOM     16  C   UNL     1      -0.514  -4.419   8.194  0.00  0.00    +0.000 C 
ATOM     17  C   UNL     1       0.769  -4.445   9.022  0.00  0.00    +0.000 C 
ATOM     18  C   UNL     1       1.565  -5.702   8.744  0.00  0.00    +0.000 C 
ATOM     19  N   UNL     1       0.761  -6.896   9.032  0.00  0.00    +0.000 NA
ATOM     20  C   UNL     1      -0.405  -6.920   8.150  0.00  0.00    +0.000 C 
ATOM     21  C   UNL     1      -1.297  -5.715   8.394  0.00  0.00    +0.000 C 
BRANCH  19  22
ATOM     22  C   UNL     1       1.572  -8.100   8.807  0.00  0.00    +0.000 C 
BRANCH  22  23
ATOM     23  C   UNL     1       2.278  -8.483  10.098  0.00  0.00    +0.000 A 
ATOM     24  C   UNL     1       1.498  -8.523  11.243  0.00  0.00    +0.000 A 
ATOM     25  C   UNL     1       2.241  -8.687  12.437  0.00  0.00    +0.000 A 
ATOM     26  C   UNL     1       3.485  -9.123  12.489  0.00  0.00    +0.000 A 
ATOM     27  C   UNL     1       4.181  -9.123  11.313  0.00  0.00    +0.000 A 
ATOM     28  C   UNL     1       3.555  -8.846  10.122  0.00  0.00    +0.000 A 
ENDBRANCH  22  23
ENDBRANCH  19  22
ENDBRANCH  15  16
ENDBRANCH   9  15
TORSDOF 6
