REMARK  Name = 
REMARK  3 active torsions:
REMARK  status: ('A' for Active; 'I' for Inactive)
REMARK    1  A    between atoms: C_1  and  N_2
REMARK    2  A    between atoms: N_2  and  C_3
REMARK    3  A    between atoms: C_4  and  N_6
REMARK                            x       y       z     vdW  Elec       q    Type
REMARK                         _______ _______ _______ _____ _____    ______ ____
ROOT
ATOM      1  N   UNL     1       0.368  -3.562  -1.665  0.00  0.00    +0.000 NA
ATOM      2  C   UNL     1       0.686  -4.230  -2.753  0.00  0.00    +0.000 C 
ATOM      3  N   UNL     1       1.531  -3.603  -3.780  0.00  0.00    +0.000 N 
ATOM      4  N   UNL     1       0.196  -5.603  -2.942  0.00  0.00    +0.000 N 
ATOM      5  H   UNL     1       1.777  -4.121  -4.623  0.00  0.00    +0.000 HD
ATOM      6  H   UNL     1       1.871  -2.651  -3.648  0.00  0.00    +0.000 HD
ATOM      7  H   UNL     1      -0.391  -6.038  -2.230  0.00  0.00    +0.000 HD
ATOM      8  H   UNL     1       0.442  -6.121  -3.786  0.00  0.00    +0.000 HD
ENDROOT
BRANCH   1  12
ATOM      9  C   UNL     1       0.994  -0.070  -0.071  0.00  0.00    +0.000 C 
ATOM     10  N   UNL     1       0.504  -1.443  -0.260  0.00  0.00    +0.000 N 
ATOM     11  C   UNL     1      -0.341  -2.071   0.767  0.00  0.00    +0.000 C 
ATOM     12  C   UNL     1       0.858  -2.189  -1.476  0.00  0.00    +0.000 C 
ATOM     13  N   UNL     1       1.613  -1.628  -2.395  0.00  0.00    +0.000 NA
ATOM     14  H   UNL     1       1.953  -0.675  -2.264  0.00  0.00    +0.000 HD
ENDBRANCH   1  12
TORSDOF 1
